
     RDKit          3D

 54 57  0  0  0  0  0  0  0  0999 V2000
    7.5152   -0.7883    1.3847 C   0  0  0  0  0  0  0  0  0  0  0  0
    6.2414   -0.6414    0.5989 C   0  0  0  0  0  0  0  0  0  0  0  0
    6.1210    0.1295   -0.5694 C   0  0  0  0  0  0  0  0  0  0  0  0
    4.8998    0.1946   -1.2706 C   0  0  0  0  0  0  0  0  0  0  0  0
    3.7834   -0.5229   -0.8394 C   0  0  0  0  0  0  0  0  0  0  0  0
    3.9097   -1.3144    0.3078 C   0  0  0  0  0  0  0  0  0  0  0  0
    5.1120   -1.3616    1.0223 C   0  0  0  0  0  0  0  0  0  0  0  0
    2.6034   -0.4707   -1.6125 N   0  0  0  0  0  0  0  0  0  0  0  0
    1.3911   -1.0604   -1.2377 C   0  0  0  0  0  0  0  0  0  0  0  0
    1.1472   -2.3215   -1.6194 N   0  0  0  0  0  0  0  0  0  0  0  0
   -0.0193   -2.8598   -1.2472 C   0  0  0  0  0  0  0  0  0  0  0  0
   -0.9364   -2.1933   -0.4690 C   0  0  0  0  0  0  0  0  0  0  0  0
   -0.6119   -0.8963   -0.1041 C   0  0  0  0  0  0  0  0  0  0  0  0
    0.5409   -0.3262   -0.5047 N   0  0  0  0  0  0  0  0  0  0  0  0
   -1.4829   -0.1953    0.7728 N   0  0  0  0  0  0  0  0  0  0  0  0
   -0.7371    0.5804    1.7637 C   0  0  0  0  0  0  0  0  0  0  0  0
   -2.8510    0.1301    0.5447 C   0  0  0  0  0  0  0  0  0  0  0  0
   -3.4740   -0.2335   -0.6852 C   0  0  0  0  0  0  0  0  0  0  0  0
   -4.8356    0.0921   -0.8011 C   0  0  0  0  0  0  0  0  0  0  0  0
   -5.6915   -0.1500   -1.8041 N   0  0  0  0  0  0  0  0  0  0  0  0
   -6.8765    0.3373   -1.3829 N   0  0  0  0  0  0  0  0  0  0  0  0
   -6.8329    0.9406   -0.1481 C   0  0  0  0  0  0  0  0  0  0  0  0
   -5.5260    0.7782    0.2542 C   0  0  0  0  0  0  0  0  0  0  0  0
   -4.9867    1.1852    1.4593 C   0  0  0  0  0  0  0  0  0  0  0  0
   -3.6237    0.8276    1.5585 C   0  0  0  0  0  0  0  0  0  0  0  0
   -8.0031    1.5574    0.5227 C   0  0  0  0  0  0  0  0  0  0  0  0
   -8.0407    0.1294   -2.2154 C   0  0  0  0  0  0  0  0  0  0  0  0
    7.4920    1.0129   -1.2619 S   0  0  0  0  0  6  0  0  0  0  0  0
    7.0582    1.7607   -2.4280 O   0  0  0  0  0  0  0  0  0  0  0  0
    8.6527    0.1536   -1.3005 O   0  0  0  0  0  0  0  0  0  0  0  0
    7.8181    2.1993   -0.1207 N   0  0  0  0  0  0  0  0  0  0  0  0
    8.2526   -1.3417    0.7980 H   0  0  0  0  0  0  0  0  0  0  0  0
    7.9191    0.1832    1.6808 H   0  0  0  0  0  0  0  0  0  0  0  0
    7.3507   -1.3516    2.3073 H   0  0  0  0  0  0  0  0  0  0  0  0
    4.8284    0.7826   -2.1863 H   0  0  0  0  0  0  0  0  0  0  0  0
    3.0790   -1.9164    0.6640 H   0  0  0  0  0  0  0  0  0  0  0  0
    5.1648   -1.9956    1.9118 H   0  0  0  0  0  0  0  0  0  0  0  0
    2.3717    0.5122   -1.7879 H   0  0  0  0  0  0  0  0  0  0  0  0
   -0.1895   -3.8801   -1.5778 H   0  0  0  0  0  0  0  0  0  0  0  0
   -1.8438   -2.6772   -0.1415 H   0  0  0  0  0  0  0  0  0  0  0  0
   -1.1556    0.4204    2.7660 H   0  0  0  0  0  0  0  0  0  0  0  0
    0.3115    0.2804    1.8622 H   0  0  0  0  0  0  0  0  0  0  0  0
   -0.7603    1.6525    1.5292 H   0  0  0  0  0  0  0  0  0  0  0  0
   -2.9660   -0.7199   -1.5044 H   0  0  0  0  0  0  0  0  0  0  0  0
   -5.5177    1.7031    2.2485 H   0  0  0  0  0  0  0  0  0  0  0  0
   -3.1352    1.1107    2.4962 H   0  0  0  0  0  0  0  0  0  0  0  0
   -8.6676    2.0658   -0.1992 H   0  0  0  0  0  0  0  0  0  0  0  0
   -8.5893    0.7964    1.0454 H   0  0  0  0  0  0  0  0  0  0  0  0
   -7.6960    2.3150    1.2553 H   0  0  0  0  0  0  0  0  0  0  0  0
   -8.6170    1.0507   -2.2637 H   0  0  0  0  0  0  0  0  0  0  0  0
   -7.7123   -0.1466   -3.2245 H   0  0  0  0  0  0  0  0  0  0  0  0
   -8.6241   -0.6874   -1.7749 H   0  0  0  0  0  0  0  0  0  0  0  0
    8.7568    2.0578    0.2576 H   0  0  0  0  0  0  0  0  0  0  0  0
    7.6831    3.1123   -0.5568 H   0  0  0  0  0  0  0  0  0  0  0  0
  1  2  1  0
  2  3  2  0
  3  4  1  0
  4  5  2  0
  5  6  1  0
  6  7  2  0
  5  8  1  0
  8  9  1  0
  9 10  2  0
 10 11  1  0
 11 12  2  0
 12 13  1  0
 13 14  2  0
 13 15  1  0
 15 16  1  0
 15 17  1  0
 17 18  2  0
 18 19  1  0
 19 20  2  0
 20 21  1  0
 21 22  1  0
 22 23  2  0
 23 24  1  0
 24 25  2  0
 22 26  1  0
 21 27  1  0
  3 28  1  0
 28 29  2  0
 28 30  2  0
 28 31  1  0
  7  2  1  0
 14  9  1  0
 25 17  1  0
 23 19  1  0
  1 32  1  0
  1 33  1  0
  1 34  1  0
  4 35  1  0
  6 36  1  0
  7 37  1  0
  8 38  1  0
 11 39  1  0
 12 40  1  0
 16 41  1  0
 16 42  1  0
 16 43  1  0
 18 44  1  0
 24 45  1  0
 25 46  1  0
 26 47  1  0
 26 48  1  0
 26 49  1  0
 27 50  1  0
 27 51  1  0
 27 52  1  0
 31 53  1  0
 31 54  1  0
M  END
$$$$
