
     RDKit          3D

 44 48  0  0  0  0  0  0  0  0999 V2000
    4.8520   -1.6865    1.0677 C   0  0  0  0  0  0  0  0  0  0  0  0
    3.5096   -1.2666    0.9537 C   0  0  0  0  0  0  0  0  0  0  0  0
    3.1780   -0.2242    0.0757 C   0  0  0  0  0  0  0  0  0  0  0  0
    4.1760    0.3697   -0.7142 C   0  0  0  0  0  0  0  0  0  0  0  0
    5.4889   -0.0965   -0.6556 C   0  0  0  0  0  0  0  0  0  0  0  0
    5.8290   -1.0996    0.2522 C   0  0  0  0  0  0  0  0  0  0  0  0
    7.1251   -1.4886    0.3956 O   0  0  0  0  0  0  0  0  0  0  0  0
    6.4562    0.3959   -1.4698 O   0  0  0  0  0  0  0  0  0  0  0  0
    3.8719    1.4382   -1.5849 O   0  0  0  0  0  0  0  0  0  0  0  0
    2.5774    2.0031   -1.6723 C   0  0  0  0  0  0  0  0  0  0  0  0
    2.3355    2.9638   -2.4019 O   0  0  0  0  0  0  0  0  0  0  0  0
    1.5217    1.3771   -0.8302 C   0  0  0  0  0  0  0  0  0  0  0  0
    0.2055    1.8935   -0.8365 C   0  0  0  0  0  0  0  0  0  0  0  0
   -0.7976    1.2439   -0.0841 C   0  0  0  0  0  0  0  0  0  0  0  0
   -0.5092    0.1091    0.6863 C   0  0  0  0  0  0  0  0  0  0  0  0
    0.8122   -0.3581    0.7159 C   0  0  0  0  0  0  0  0  0  0  0  0
    1.8217    0.2601   -0.0269 C   0  0  0  0  0  0  0  0  0  0  0  0
    1.1212   -1.4695    1.5346 O   0  0  0  0  0  0  0  0  0  0  0  0
    2.4347   -1.9444    1.7350 C   0  0  0  0  0  0  0  0  0  0  0  0
    2.6694   -2.8745    2.5072 O   0  0  0  0  0  0  0  0  0  0  0  0
   -1.4608   -0.5080    1.4316 O   0  0  0  0  0  0  0  0  0  0  0  0
   -2.0385    1.8586   -0.1312 O   0  0  0  0  0  0  0  0  0  0  0  0
   -3.0656    1.0249   -0.5361 C   0  0  0  0  0  0  0  0  0  0  0  0
   -3.1241    0.5424   -1.8448 C   0  0  0  0  0  0  0  0  0  0  0  0
   -4.0808   -0.4045   -2.2019 C   0  0  0  0  0  0  0  0  0  0  0  0
   -4.9902   -0.8489   -1.2700 C   0  0  0  0  0  0  0  0  0  0  0  0
   -5.0310   -0.2869    0.0003 C   0  0  0  0  0  0  0  0  0  0  0  0
   -4.0662    0.6694    0.3817 C   0  0  0  0  0  0  0  0  0  0  0  0
   -4.1090    1.2706    1.7491 C   0  0  0  0  0  0  0  0  0  0  0  0
   -3.4584    2.2043    2.1828 O   0  0  0  0  0  0  0  0  0  0  0  0
   -4.9610    0.5972    2.5515 O   0  0  0  0  0  0  0  0  0  0  0  0
   -5.9034   -1.7963   -1.6721 O   0  0  0  0  0  0  0  0  0  0  0  0
   -4.0823   -0.8665   -3.4881 O   0  0  0  0  0  0  0  0  0  0  0  0
   -2.2534    0.9891   -2.8100 O   0  0  0  0  0  0  0  0  0  0  0  0
    5.1429   -2.4701    1.7699 H   0  0  0  0  0  0  0  0  0  0  0  0
    7.4653   -1.5252   -0.5293 H   0  0  0  0  0  0  0  0  0  0  0  0
    6.4949    1.3618   -1.2513 H   0  0  0  0  0  0  0  0  0  0  0  0
   -0.0520    2.7723   -1.4217 H   0  0  0  0  0  0  0  0  0  0  0  0
   -1.0199   -1.2660    1.8486 H   0  0  0  0  0  0  0  0  0  0  0  0
   -5.8161   -0.5733    0.7099 H   0  0  0  0  0  0  0  0  0  0  0  0
   -4.8299    1.0817    3.3902 H   0  0  0  0  0  0  0  0  0  0  0  0
   -6.3272   -2.1545   -0.8522 H   0  0  0  0  0  0  0  0  0  0  0  0
   -4.5974   -1.7065   -3.4340 H   0  0  0  0  0  0  0  0  0  0  0  0
   -2.5152    0.4888   -3.6118 H   0  0  0  0  0  0  0  0  0  0  0  0
  1  2  2  0
  2  3  1  0
  3  4  2  0
  4  5  1  0
  5  6  2  0
  6  7  1  0
  5  8  1  0
  4  9  1  0
  9 10  1  0
 10 11  2  0
 10 12  1  0
 12 13  2  0
 13 14  1  0
 14 15  2  0
 15 16  1  0
 16 17  2  0
 16 18  1  0
 18 19  1  0
 19 20  2  0
 15 21  1  0
 14 22  1  0
 22 23  1  0
 23 24  2  0
 24 25  1  0
 25 26  2  0
 26 27  1  0
 27 28  2  0
 28 29  1  0
 29 30  2  0
 29 31  1  0
 26 32  1  0
 25 33  1  0
 24 34  1  0
  6  1  1  0
 19  2  1  0
 17  3  1  0
 17 12  1  0
 28 23  1  0
  1 35  1  0
  7 36  1  0
  8 37  1  0
 13 38  1  0
 21 39  1  0
 27 40  1  0
 31 41  1  0
 32 42  1  0
 33 43  1  0
 34 44  1  0
M  END
$$$$
