
     RDKit          3D

 29 31  0  0  0  0  0  0  0  0999 V2000
   -4.0500    1.5198   -0.3465 C   0  0  0  0  0  0  0  0  0  0  0  0
   -2.7469    1.9490   -0.1086 C   0  0  0  0  0  0  0  0  0  0  0  0
   -1.6978    1.0242   -0.0407 C   0  0  0  0  0  0  0  0  0  0  0  0
   -1.9423   -0.3449   -0.2083 C   0  0  0  0  0  0  0  0  0  0  0  0
   -3.2612   -0.7667   -0.4517 C   0  0  0  0  0  0  0  0  0  0  0  0
   -4.3081    0.1594   -0.5164 C   0  0  0  0  0  0  0  0  0  0  0  0
   -3.5530   -2.0904   -0.6195 O   0  0  0  0  0  0  0  0  0  0  0  0
   -0.7942   -1.2940   -0.1742 C   0  0  0  0  0  0  0  0  0  0  0  0
   -0.9325   -2.5098   -0.2380 O   0  0  0  0  0  0  0  0  0  0  0  0
    0.5832   -0.7749   -0.0439 C   0  0  0  0  0  0  0  0  0  0  0  0
    0.8040    0.5863    0.1621 C   0  0  0  0  0  0  0  0  0  0  0  0
   -0.3356    1.5198    0.2095 C   0  0  0  0  0  0  0  0  0  0  0  0
   -0.1393    2.7103    0.4272 O   0  0  0  0  0  0  0  0  0  0  0  0
    2.1111    1.0797    0.3240 C   0  0  0  0  0  0  0  0  0  0  0  0
    3.2054    0.2041    0.2554 C   0  0  0  0  0  0  0  0  0  0  0  0
    2.9889   -1.1541    0.0247 C   0  0  0  0  0  0  0  0  0  0  0  0
    1.6901   -1.6345   -0.1255 C   0  0  0  0  0  0  0  0  0  0  0  0
    1.5774   -2.9772   -0.3629 O   0  0  0  0  0  0  0  0  0  0  0  0
    4.5619    0.7565    0.4582 C   0  0  0  0  0  0  0  0  0  0  0  0
    4.8279    1.9217    0.6855 O   0  0  0  0  0  0  0  0  0  0  0  0
    5.5214   -0.1745    0.3773 O   0  0  0  0  0  0  0  0  0  0  0  0
   -4.8653    2.2362   -0.3983 H   0  0  0  0  0  0  0  0  0  0  0  0
   -2.5537    3.0085    0.0224 H   0  0  0  0  0  0  0  0  0  0  0  0
   -5.3311   -0.1653   -0.6966 H   0  0  0  0  0  0  0  0  0  0  0  0
   -4.4210   -2.1868   -1.0524 H   0  0  0  0  0  0  0  0  0  0  0  0
    2.2714    2.1466    0.5030 H   0  0  0  0  0  0  0  0  0  0  0  0
    3.8248   -1.8476   -0.0345 H   0  0  0  0  0  0  0  0  0  0  0  0
    0.6133   -3.2145   -0.3354 H   0  0  0  0  0  0  0  0  0  0  0  0
    6.3511    0.3132    0.5624 H   0  0  0  0  0  0  0  0  0  0  0  0
  1  2  2  0
  2  3  1  0
  3  4  2  0
  4  5  1  0
  5  6  2  0
  5  7  1  0
  4  8  1  0
  8  9  2  0
  8 10  1  0
 10 11  2  0
 11 12  1  0
 12 13  2  0
 11 14  1  0
 14 15  2  0
 15 16  1  0
 16 17  2  0
 17 18  1  0
 15 19  1  0
 19 20  2  0
 19 21  1  0
  6  1  1  0
 12  3  1  0
 17 10  1  0
  1 22  1  0
  2 23  1  0
  6 24  1  0
  7 25  1  0
 14 26  1  0
 16 27  1  0
 18 28  1  0
 21 29  1  0
M  END
$$$$
