
     RDKit          3D

 14 14  0  0  0  0  0  0  0  0999 V2000
   -1.4938    1.1080    0.0388 C   0  0  0  0  0  0  0  0  0  0  0  0
   -2.1318   -0.1226   -0.0778 C   0  0  0  0  0  0  0  0  0  0  0  0
   -1.3517   -1.2666   -0.1422 C   0  0  0  0  0  0  0  0  0  0  0  0
   -0.0029   -1.2596   -0.0985 N   0  0  0  0  0  0  0  0  0  0  0  0
    0.5997   -0.0464    0.0156 C   0  0  0  0  0  0  0  0  0  0  0  0
   -0.1032    1.1525    0.0868 C   0  0  0  0  0  0  0  0  0  0  0  0
    2.0915   -0.0024    0.0667 C   0  0  0  0  0  0  0  0  0  0  0  0
    2.7676    1.0082    0.1673 O   0  0  0  0  0  0  0  0  0  0  0  0
    2.6699   -1.2173   -0.0098 O   0  0  0  0  0  0  0  0  0  0  0  0
   -2.0740    2.0253    0.0919 H   0  0  0  0  0  0  0  0  0  0  0  0
   -3.2137   -0.1898   -0.1176 H   0  0  0  0  0  0  0  0  0  0  0  0
   -1.8063   -2.2494   -0.2335 H   0  0  0  0  0  0  0  0  0  0  0  0
    0.4188    2.0999    0.1775 H   0  0  0  0  0  0  0  0  0  0  0  0
    3.6299   -1.0396    0.0348 H   0  0  0  0  0  0  0  0  0  0  0  0
  1  2  2  0
  2  3  1  0
  3  4  2  0
  4  5  1  0
  5  6  2  0
  5  7  1  0
  7  8  2  0
  7  9  1  0
  6  1  1  0
  1 10  1  0
  2 11  1  0
  3 12  1  0
  6 13  1  0
  9 14  1  0
M  END
$$$$
