
     RDKit          3D

 29 31  0  0  0  0  0  0  0  0999 V2000
   -4.4545   -1.4725   -0.1380 C   0  0  0  0  0  0  0  0  0  0  0  0
   -3.1517   -0.7356   -0.0325 C   0  0  0  0  0  0  0  0  0  0  0  0
   -1.9361   -1.4231   -0.1390 C   0  0  0  0  0  0  0  0  0  0  0  0
   -0.7179   -0.7301   -0.0718 C   0  0  0  0  0  0  0  0  0  0  0  0
   -0.7065    0.6540    0.0914 C   0  0  0  0  0  0  0  0  0  0  0  0
   -1.9224    1.3424    0.1829 C   0  0  0  0  0  0  0  0  0  0  0  0
   -3.1342    0.6557    0.1165 C   0  0  0  0  0  0  0  0  0  0  0  0
   -2.0059    2.7002    0.3368 O   0  0  0  0  0  0  0  0  0  0  0  0
    0.5785    1.3739    0.1606 C   0  0  0  0  0  0  0  0  0  0  0  0
    0.5913    2.5959    0.3041 O   0  0  0  0  0  0  0  0  0  0  0  0
    1.8487    0.6321    0.0577 C   0  0  0  0  0  0  0  0  0  0  0  0
    1.8308   -0.7527   -0.1069 C   0  0  0  0  0  0  0  0  0  0  0  0
    0.5488   -1.4818   -0.1786 C   0  0  0  0  0  0  0  0  0  0  0  0
    0.5369   -2.6982   -0.3251 O   0  0  0  0  0  0  0  0  0  0  0  0
    3.0339   -1.4661   -0.2060 C   0  0  0  0  0  0  0  0  0  0  0  0
    4.2540   -0.7926   -0.1400 C   0  0  0  0  0  0  0  0  0  0  0  0
    4.2756    0.5914    0.0245 C   0  0  0  0  0  0  0  0  0  0  0  0
    3.0793    1.2993    0.1227 C   0  0  0  0  0  0  0  0  0  0  0  0
    3.1905    2.6542    0.2825 O   0  0  0  0  0  0  0  0  0  0  0  0
   -4.3624   -2.4872    0.2631 H   0  0  0  0  0  0  0  0  0  0  0  0
   -4.7665   -1.5323   -1.1852 H   0  0  0  0  0  0  0  0  0  0  0  0
   -5.2373   -0.9662    0.4365 H   0  0  0  0  0  0  0  0  0  0  0  0
   -1.9359   -2.5047   -0.2740 H   0  0  0  0  0  0  0  0  0  0  0  0
   -4.0655    1.2152    0.1831 H   0  0  0  0  0  0  0  0  0  0  0  0
   -1.0943    3.0656    0.3717 H   0  0  0  0  0  0  0  0  0  0  0  0
    3.0246   -2.5476   -0.3346 H   0  0  0  0  0  0  0  0  0  0  0  0
    5.1874   -1.3459   -0.2168 H   0  0  0  0  0  0  0  0  0  0  0  0
    5.2243    1.1207    0.0764 H   0  0  0  0  0  0  0  0  0  0  0  0
    2.2866    3.0358    0.3379 H   0  0  0  0  0  0  0  0  0  0  0  0
  1  2  1  0
  2  3  2  0
  3  4  1  0
  4  5  2  0
  5  6  1  0
  6  7  2  0
  6  8  1  0
  5  9  1  0
  9 10  2  0
  9 11  1  0
 11 12  2  0
 12 13  1  0
 13 14  2  0
 12 15  1  0
 15 16  2  0
 16 17  1  0
 17 18  2  0
 18 19  1  0
  7  2  1  0
 13  4  1  0
 18 11  1  0
  1 20  1  0
  1 21  1  0
  1 22  1  0
  3 23  1  0
  7 24  1  0
  8 25  1  0
 15 26  1  0
 16 27  1  0
 17 28  1  0
 19 29  1  0
M  END
$$$$
