
     RDKit          3D

 83 90  0  0  0  0  0  0  0  0999 V2000
    4.8619    1.8309    3.2099 C   0  0  0  0  0  0  0  0  0  0  0  0
    4.8474    1.0768    1.9645 N   0  0  0  0  0  0  0  0  0  0  0  0
    5.9122    1.5066    1.0544 C   0  0  0  0  0  0  0  0  0  0  0  0
    6.1006    0.4726   -0.0596 C   0  0  0  0  0  0  0  0  0  0  0  0
    4.8055   -0.0436   -0.6385 C   0  0  0  0  0  0  0  0  0  0  0  0
    4.8562   -0.8156   -1.8110 C   0  0  0  0  0  0  0  0  0  0  0  0
    3.6829   -1.3582   -2.2826 C   0  0  0  0  0  0  0  0  0  0  0  0
    2.4854   -1.1902   -1.6288 C   0  0  0  0  0  0  0  0  0  0  0  0
    2.4063   -0.4640   -0.4509 C   0  0  0  0  0  0  0  0  0  0  0  0
    3.5726    0.1629    0.0409 C   0  0  0  0  0  0  0  0  0  0  0  0
    3.5217    1.0786    1.2754 C   0  0  2  0  0  0  0  0  0  0  0  0
    3.0248    2.5105    0.8733 C   0  0  0  0  0  0  0  0  0  0  0  0
    1.5256    2.7160    0.7909 C   0  0  0  0  0  0  0  0  0  0  0  0
    0.9230    3.0466   -0.4294 C   0  0  0  0  0  0  0  0  0  0  0  0
   -0.4536    3.2694   -0.4975 C   0  0  0  0  0  0  0  0  0  0  0  0
   -1.2414    3.1549    0.6524 C   0  0  0  0  0  0  0  0  0  0  0  0
   -0.6496    2.8579    1.8762 C   0  0  0  0  0  0  0  0  0  0  0  0
    0.7278    2.6340    1.9428 C   0  0  0  0  0  0  0  0  0  0  0  0
   -2.6106    3.3532    0.6332 O   0  0  0  0  0  0  0  0  0  0  0  0
   -3.2850    2.6313   -0.3353 C   0  0  0  0  0  0  0  0  0  0  0  0
   -3.9501    3.3017   -1.3672 C   0  0  0  0  0  0  0  0  0  0  0  0
   -4.5175    2.5377   -2.3857 C   0  0  0  0  0  0  0  0  0  0  0  0
   -4.4036    1.1377   -2.3757 C   0  0  0  0  0  0  0  0  0  0  0  0
   -3.7723    0.4591   -1.3204 C   0  0  0  0  0  0  0  0  0  0  0  0
   -3.2596    1.2323   -0.2749 C   0  0  0  0  0  0  0  0  0  0  0  0
   -3.5726   -1.0497   -1.4262 C   0  0  0  0  0  0  0  0  0  0  0  0
   -3.4036   -1.8572   -0.0919 C   0  0  2  0  0  0  0  0  0  0  0  0
   -1.9158   -2.1309    0.2386 C   0  0  0  0  0  0  0  0  0  0  0  0
   -0.9177   -1.1721    0.0050 C   0  0  0  0  0  0  0  0  0  0  0  0
    0.4041   -1.3559    0.4296 C   0  0  0  0  0  0  0  0  0  0  0  0
    0.7830   -2.5175    1.1043 C   0  0  0  0  0  0  0  0  0  0  0  0
   -0.1806   -3.5094    1.2943 C   0  0  0  0  0  0  0  0  0  0  0  0
   -1.5181   -3.3155    0.8851 C   0  0  0  0  0  0  0  0  0  0  0  0
   -2.5073   -4.4286    1.1013 C   0  0  0  0  0  0  0  0  0  0  0  0
   -3.9498   -3.9277    1.0739 C   0  0  0  0  0  0  0  0  0  0  0  0
   -4.2270   -3.1123   -0.1198 N   0  0  0  0  0  0  0  0  0  0  0  0
   -5.6703   -2.8180   -0.1396 C   0  0  0  0  0  0  0  0  0  0  0  0
    2.0775   -2.5915    1.5385 O   0  0  0  0  0  0  0  0  0  0  0  0
    2.4266   -3.6799    2.3805 C   0  0  0  0  0  0  0  0  0  0  0  0
    1.2350   -0.2730    0.2383 O   0  0  0  0  0  0  0  0  0  0  0  0
   -3.9532    4.6671   -1.2977 O   0  0  0  0  0  0  0  0  0  0  0  0
   -4.6317    5.3663   -2.3308 C   0  0  0  0  0  0  0  0  0  0  0  0
    1.4605   -1.7941   -2.2965 O   0  0  0  0  0  0  0  0  0  0  0  0
    2.1541   -2.3739   -3.4180 C   0  0  0  0  0  0  0  0  0  0  0  0
    3.5681   -2.1053   -3.4166 O   0  0  0  0  0  0  0  0  0  0  0  0
    4.0039    1.5696    3.8383 H   0  0  0  0  0  0  0  0  0  0  0  0
    4.8714    2.9152    3.0583 H   0  0  0  0  0  0  0  0  0  0  0  0
    5.7579    1.5772    3.7855 H   0  0  0  0  0  0  0  0  0  0  0  0
    5.6942    2.4844    0.6071 H   0  0  0  0  0  0  0  0  0  0  0  0
    6.8626    1.6141    1.5866 H   0  0  0  0  0  0  0  0  0  0  0  0
    6.7037    0.9179   -0.8587 H   0  0  0  0  0  0  0  0  0  0  0  0
    6.6507   -0.3876    0.3451 H   0  0  0  0  0  0  0  0  0  0  0  0
    5.7926   -0.9974   -2.3338 H   0  0  0  0  0  0  0  0  0  0  0  0
    2.8174    0.6247    1.9840 H   0  0  0  0  0  0  0  0  0  0  0  0
    3.4843    2.8125   -0.0770 H   0  0  0  0  0  0  0  0  0  0  0  0
    3.3651    3.2606    1.5971 H   0  0  0  0  0  0  0  0  0  0  0  0
    1.5195    3.1269   -1.3347 H   0  0  0  0  0  0  0  0  0  0  0  0
   -0.9028    3.5323   -1.4506 H   0  0  0  0  0  0  0  0  0  0  0  0
   -1.2568    2.7865    2.7732 H   0  0  0  0  0  0  0  0  0  0  0  0
    1.1765    2.3906    2.9018 H   0  0  0  0  0  0  0  0  0  0  0  0
   -5.0246    2.9952   -3.2262 H   0  0  0  0  0  0  0  0  0  0  0  0
   -4.8042    0.5781   -3.2202 H   0  0  0  0  0  0  0  0  0  0  0  0
   -2.7722    0.7833    0.5846 H   0  0  0  0  0  0  0  0  0  0  0  0
   -4.4381   -1.4222   -1.9853 H   0  0  0  0  0  0  0  0  0  0  0  0
   -2.7234   -1.2384   -2.0988 H   0  0  0  0  0  0  0  0  0  0  0  0
   -3.7770   -1.2538    0.7499 H   0  0  0  0  0  0  0  0  0  0  0  0
   -1.1273   -0.2463   -0.5167 H   0  0  0  0  0  0  0  0  0  0  0  0
    0.0764   -4.4455    1.7754 H   0  0  0  0  0  0  0  0  0  0  0  0
   -2.3248   -4.8998    2.0752 H   0  0  0  0  0  0  0  0  0  0  0  0
   -2.3602   -5.1871    0.3246 H   0  0  0  0  0  0  0  0  0  0  0  0
   -4.5990   -4.8134    1.0848 H   0  0  0  0  0  0  0  0  0  0  0  0
   -4.1755   -3.3577    1.9893 H   0  0  0  0  0  0  0  0  0  0  0  0
   -5.9836   -2.3338   -1.0723 H   0  0  0  0  0  0  0  0  0  0  0  0
   -6.2457   -3.7548   -0.0978 H   0  0  0  0  0  0  0  0  0  0  0  0
   -5.9861   -2.1871    0.7052 H   0  0  0  0  0  0  0  0  0  0  0  0
    2.3678   -4.6360    1.8434 H   0  0  0  0  0  0  0  0  0  0  0  0
    3.4680   -3.5412    2.6958 H   0  0  0  0  0  0  0  0  0  0  0  0
    1.8030   -3.6925    3.2844 H   0  0  0  0  0  0  0  0  0  0  0  0
   -4.1435    5.2118   -3.3001 H   0  0  0  0  0  0  0  0  0  0  0  0
   -4.5823    6.4331   -2.0990 H   0  0  0  0  0  0  0  0  0  0  0  0
   -5.6883    5.0885   -2.3756 H   0  0  0  0  0  0  0  0  0  0  0  0
    1.7230   -1.9665   -4.3397 H   0  0  0  0  0  0  0  0  0  0  0  0
    2.0057   -3.4612   -3.4120 H   0  0  0  0  0  0  0  0  0  0  0  0
  1  2  1  0
  2  3  1  0
  3  4  1  0
  4  5  1  0
  5  6  2  0
  6  7  1  0
  7  8  2  0
  8  9  1  0
  9 10  2  0
 10 11  1  0
 11 12  1  0
 12 13  1  0
 13 14  2  0
 14 15  1  0
 15 16  2  0
 16 17  1  0
 17 18  2  0
 16 19  1  0
 19 20  1  0
 20 21  2  0
 21 22  1  0
 22 23  2  0
 23 24  1  0
 24 25  2  0
 24 26  1  0
 26 27  1  0
 27 28  1  0
 28 29  2  0
 29 30  1  0
 30 31  2  0
 31 32  1  0
 32 33  2  0
 33 34  1  0
 34 35  1  0
 35 36  1  0
 36 37  1  0
 31 38  1  0
 38 39  1  0
 30 40  1  0
 21 41  1  0
 41 42  1  0
  8 43  1  0
 43 44  1  0
 44 45  1  0
 11  2  1  0
 10  5  1  0
 45  7  1  0
 40  9  1  0
 18 13  1  0
 25 20  1  0
 36 27  1  0
 33 28  1  0
  1 46  1  0
  1 47  1  0
  1 48  1  0
  3 49  1  0
  3 50  1  0
  4 51  1  0
  4 52  1  0
  6 53  1  0
 11 54  1  1
 12 55  1  0
 12 56  1  0
 14 57  1  0
 15 58  1  0
 17 59  1  0
 18 60  1  0
 22 61  1  0
 23 62  1  0
 25 63  1  0
 26 64  1  0
 26 65  1  0
 27 66  1  1
 29 67  1  0
 32 68  1  0
 34 69  1  0
 34 70  1  0
 35 71  1  0
 35 72  1  0
 37 73  1  0
 37 74  1  0
 37 75  1  0
 39 76  1  0
 39 77  1  0
 39 78  1  0
 42 79  1  0
 42 80  1  0
 42 81  1  0
 44 82  1  0
 44 83  1  0
M  END
$$$$
