
     RDKit          3D

 30 32  0  0  0  0  0  0  0  0999 V2000
    4.1367   -1.6296    0.4107 C   0  0  0  0  0  0  0  0  0  0  0  0
    2.8033   -1.9754    0.6321 C   0  0  0  0  0  0  0  0  0  0  0  0
    1.7829   -1.0559    0.3511 C   0  0  0  0  0  0  0  0  0  0  0  0
    2.0961    0.2072   -0.1506 C   0  0  0  0  0  0  0  0  0  0  0  0
    3.4384    0.5450   -0.3695 C   0  0  0  0  0  0  0  0  0  0  0  0
    4.4534   -0.3680   -0.0905 C   0  0  0  0  0  0  0  0  0  0  0  0
    3.8362    1.7598   -0.8585 O   0  0  0  0  0  0  0  0  0  0  0  0
    1.0160    1.1672   -0.4434 C   0  0  0  0  0  0  0  0  0  0  0  0
    1.2877    2.2821   -0.8870 O   0  0  0  0  0  0  0  0  0  0  0  0
   -0.3907    0.7935   -0.2064 C   0  0  0  0  0  0  0  0  0  0  0  0
   -0.6975   -0.4699    0.2952 C   0  0  0  0  0  0  0  0  0  0  0  0
    0.3772   -1.4384    0.5916 C   0  0  0  0  0  0  0  0  0  0  0  0
    0.1046   -2.5478    1.0337 O   0  0  0  0  0  0  0  0  0  0  0  0
   -2.0338   -0.8335    0.5218 C   0  0  0  0  0  0  0  0  0  0  0  0
   -3.0732    0.0700    0.2578 C   0  0  0  0  0  0  0  0  0  0  0  0
   -2.7586    1.3335   -0.2563 C   0  0  0  0  0  0  0  0  0  0  0  0
   -1.4298    1.6909   -0.4827 C   0  0  0  0  0  0  0  0  0  0  0  0
   -1.2222    2.9478   -0.9833 O   0  0  0  0  0  0  0  0  0  0  0  0
   -4.5058   -0.3334    0.4824 C   0  0  0  0  0  0  0  0  0  0  0  0
   -4.9833   -1.0966   -0.6151 O   0  0  0  0  0  0  0  0  0  0  0  0
    4.9287   -2.3429    0.6286 H   0  0  0  0  0  0  0  0  0  0  0  0
    2.5635   -2.9630    1.0240 H   0  0  0  0  0  0  0  0  0  0  0  0
    5.4916   -0.0943   -0.2647 H   0  0  0  0  0  0  0  0  0  0  0  0
    3.0371    2.3100   -1.0140 H   0  0  0  0  0  0  0  0  0  0  0  0
   -2.2684   -1.8273    0.9055 H   0  0  0  0  0  0  0  0  0  0  0  0
   -3.5463    2.0501   -0.4837 H   0  0  0  0  0  0  0  0  0  0  0  0
   -0.2551    3.0839   -1.0947 H   0  0  0  0  0  0  0  0  0  0  0  0
   -5.1464    0.5474    0.5972 H   0  0  0  0  0  0  0  0  0  0  0  0
   -4.6031   -0.9291    1.3961 H   0  0  0  0  0  0  0  0  0  0  0  0
   -4.4392   -0.8834   -1.3918 H   0  0  0  0  0  0  0  0  0  0  0  0
  1  2  2  0
  2  3  1  0
  3  4  2  0
  4  5  1  0
  5  6  2  0
  5  7  1  0
  4  8  1  0
  8  9  2  0
  8 10  1  0
 10 11  2  0
 11 12  1  0
 12 13  2  0
 11 14  1  0
 14 15  2  0
 15 16  1  0
 16 17  2  0
 17 18  1  0
 15 19  1  0
 19 20  1  0
  6  1  1  0
 12  3  1  0
 17 10  1  0
  1 21  1  0
  2 22  1  0
  6 23  1  0
  7 24  1  0
 14 25  1  0
 16 26  1  0
 18 27  1  0
 19 28  1  0
 19 29  1  0
 20 30  1  0
M  END
$$$$
