
     RDKit          3D

 52 55  0  0  0  0  0  0  0  0999 V2000
    0.8327    0.9142   -1.8972 C   0  0  0  0  0  0  0  0  0  0  0  0
    1.7811    0.1648   -1.0029 C   0  0  0  0  0  0  0  0  0  0  0  0
    3.1226    0.5923   -0.9606 C   0  0  0  0  0  0  0  0  0  0  0  0
    4.0846   -0.0474   -0.1642 C   0  0  0  0  0  0  0  0  0  0  0  0
    3.6658   -1.1600    0.5841 C   0  0  0  0  0  0  0  0  0  0  0  0
    2.3461   -1.6425    0.5207 C   0  0  0  0  0  0  0  0  0  0  0  0
    1.3808   -0.9367   -0.2250 C   0  0  0  0  0  0  0  0  0  0  0  0
    0.0976   -1.4420   -0.3325 O   0  0  0  0  0  0  0  0  0  0  0  0
   -0.8447   -0.8828    0.5100 C   0  0  0  0  0  0  0  0  0  0  0  0
   -1.8167   -0.0430   -0.0354 C   0  0  0  0  0  0  0  0  0  0  0  0
   -2.8580    0.4855    0.7529 C   0  0  0  0  0  0  0  0  0  0  0  0
   -2.9268    0.0961    2.0961 C   0  0  0  0  0  0  0  0  0  0  0  0
   -1.9976   -0.7883    2.6304 C   0  0  0  0  0  0  0  0  0  0  0  0
   -0.9588   -1.2806    1.8399 C   0  0  0  0  0  0  0  0  0  0  0  0
   -3.9133    0.4969    2.9463 O   0  0  0  0  0  0  0  0  0  0  0  0
   -3.8625    1.4075    0.0999 C   0  0  0  0  0  0  0  0  0  0  0  0
   -5.0932    0.7170   -0.4499 C   0  0  0  0  0  0  0  0  0  0  0  0
   -5.0502    0.0960   -1.7096 C   0  0  0  0  0  0  0  0  0  0  0  0
   -6.1884   -0.5187   -2.2366 C   0  0  0  0  0  0  0  0  0  0  0  0
   -7.3679   -0.5191   -1.4965 C   0  0  0  0  0  0  0  0  0  0  0  0
   -7.4319    0.0819   -0.2440 C   0  0  0  0  0  0  0  0  0  0  0  0
   -6.2918    0.6938    0.2820 C   0  0  0  0  0  0  0  0  0  0  0  0
   -8.4556   -1.1007   -2.0042 F   0  0  0  0  0  0  0  0  0  0  0  0
    2.0354   -2.9162    1.2530 C   0  0  0  0  0  0  0  0  0  0  0  0
    5.4484    0.3691   -0.1336 N   0  0  0  0  0  0  0  0  0  0  0  0
    6.0745    1.0015   -1.2371 C   0  0  0  0  0  0  0  0  0  0  0  0
    5.5765    1.2218   -2.3475 O   0  0  0  0  0  0  0  0  0  0  0  0
    7.3857    1.3575   -1.0549 N   0  0  0  0  0  0  0  0  0  0  0  0
    8.1118    1.1023    0.0742 C   0  0  0  0  0  0  0  0  0  0  0  0
    9.2816    1.4012    0.2568 O   0  0  0  0  0  0  0  0  0  0  0  0
    7.3570    0.3755    1.1506 C   0  0  0  0  0  0  0  0  0  0  0  0
    6.1189    0.0335    1.0416 N   0  0  0  0  0  0  0  0  0  0  0  0
    0.2437    1.6137   -1.2977 H   0  0  0  0  0  0  0  0  0  0  0  0
    1.3735    1.4926   -2.6553 H   0  0  0  0  0  0  0  0  0  0  0  0
    0.1730    0.2299   -2.4420 H   0  0  0  0  0  0  0  0  0  0  0  0
    3.4003    1.4717   -1.5422 H   0  0  0  0  0  0  0  0  0  0  0  0
    4.3987   -1.7086    1.1848 H   0  0  0  0  0  0  0  0  0  0  0  0
   -1.7649    0.1992   -1.0980 H   0  0  0  0  0  0  0  0  0  0  0  0
   -2.0897   -1.0934    3.6732 H   0  0  0  0  0  0  0  0  0  0  0  0
   -0.2789   -2.0012    2.2785 H   0  0  0  0  0  0  0  0  0  0  0  0
   -4.2213    1.3819    2.6687 H   0  0  0  0  0  0  0  0  0  0  0  0
   -4.1649    2.1944    0.8017 H   0  0  0  0  0  0  0  0  0  0  0  0
   -3.3738    1.9630   -0.7153 H   0  0  0  0  0  0  0  0  0  0  0  0
   -4.1348    0.0887   -2.2952 H   0  0  0  0  0  0  0  0  0  0  0  0
   -6.1599   -0.9925   -3.2102 H   0  0  0  0  0  0  0  0  0  0  0  0
   -8.3653    0.0673    0.3105 H   0  0  0  0  0  0  0  0  0  0  0  0
   -6.3570    1.1546    1.2659 H   0  0  0  0  0  0  0  0  0  0  0  0
    1.8687   -2.6992    2.3100 H   0  0  0  0  0  0  0  0  0  0  0  0
    2.8676   -3.6231    1.1742 H   0  0  0  0  0  0  0  0  0  0  0  0
    1.1612   -3.4334    0.8490 H   0  0  0  0  0  0  0  0  0  0  0  0
    7.8410    1.8138   -1.8283 H   0  0  0  0  0  0  0  0  0  0  0  0
    7.9389    0.1454    2.0611 H   0  0  0  0  0  0  0  0  0  0  0  0
  1  2  1  0
  2  3  2  0
  3  4  1  0
  4  5  2  0
  5  6  1  0
  6  7  2  0
  7  8  1  0
  8  9  1  0
  9 10  2  0
 10 11  1  0
 11 12  2  0
 12 13  1  0
 13 14  2  0
 12 15  1  0
 11 16  1  0
 16 17  1  0
 17 18  2  0
 18 19  1  0
 19 20  2  0
 20 21  1  0
 21 22  2  0
 20 23  1  0
  6 24  1  0
  4 25  1  0
 25 26  1  0
 26 27  2  0
 26 28  1  0
 28 29  1  0
 29 30  2  0
 29 31  1  0
 31 32  2  0
  7  2  1  0
 14  9  1  0
 22 17  1  0
 32 25  1  0
  1 33  1  0
  1 34  1  0
  1 35  1  0
  3 36  1  0
  5 37  1  0
 10 38  1  0
 13 39  1  0
 14 40  1  0
 15 41  1  0
 16 42  1  0
 16 43  1  0
 18 44  1  0
 19 45  1  0
 21 46  1  0
 22 47  1  0
 24 48  1  0
 24 49  1  0
 24 50  1  0
 28 51  1  0
 31 52  1  0
M  END
$$$$
