
     RDKit          3D

 43 44  0  0  0  0  0  0  0  0999 V2000
   -2.6848   -1.9874    2.1275 C   0  0  0  0  0  0  0  0  0  0  0  0
   -3.5784   -1.4761    0.9935 C   0  0  0  0  0  0  0  0  0  0  0  0
   -3.2515   -2.1905   -0.3217 C   0  0  0  0  0  0  0  0  0  0  0  0
   -3.4820    0.0354    0.8493 C   0  0  0  0  0  0  0  0  0  0  0  0
   -4.5937    0.8621    1.0587 C   0  0  0  0  0  0  0  0  0  0  0  0
   -4.5002    2.2478    0.9276 C   0  0  0  0  0  0  0  0  0  0  0  0
   -3.2816    2.8295    0.5818 C   0  0  0  0  0  0  0  0  0  0  0  0
   -2.1562    2.0334    0.3683 C   0  0  0  0  0  0  0  0  0  0  0  0
   -2.2599    0.6438    0.5004 C   0  0  0  0  0  0  0  0  0  0  0  0
   -1.0120    2.7284    0.0310 O   0  0  0  0  0  0  0  0  0  0  0  0
    0.1529    2.0212   -0.1375 C   0  0  0  0  0  0  0  0  0  0  0  0
    1.0148    1.8096    0.9421 C   0  0  0  0  0  0  0  0  0  0  0  0
    2.2150    1.1147    0.7589 C   0  0  0  0  0  0  0  0  0  0  0  0
    2.5798    0.6387   -0.5070 C   0  0  0  0  0  0  0  0  0  0  0  0
    1.7320    0.8799   -1.5899 C   0  0  0  0  0  0  0  0  0  0  0  0
    0.5298    1.5753   -1.4085 C   0  0  0  0  0  0  0  0  0  0  0  0
   -0.5575    1.8918   -2.9336 Br  0  0  0  0  0  0  0  0  0  0  0  0
    3.8076   -0.0525   -0.5973 N   0  0  0  0  0  0  0  0  0  0  0  0
    4.3729   -0.6413   -1.7093 C   0  0  0  0  0  0  0  0  0  0  0  0
    3.8667   -0.6550   -2.8318 O   0  0  0  0  0  0  0  0  0  0  0  0
    5.7291   -1.2903   -1.5253 C   0  0  0  0  0  0  0  0  0  0  0  0
    6.2692   -1.4267   -0.1397 C   0  0  0  0  0  0  0  0  0  0  0  0
    5.7748   -0.9897    0.8878 O   0  0  0  0  0  0  0  0  0  0  0  0
    7.4344   -2.1027   -0.1067 O   0  0  0  0  0  0  0  0  0  0  0  0
    0.6127    2.4487    2.6839 Br  0  0  0  0  0  0  0  0  0  0  0  0
   -5.7910    0.2972    1.3986 O   0  0  0  0  0  0  0  0  0  0  0  0
   -2.8291   -3.0634    2.2749 H   0  0  0  0  0  0  0  0  0  0  0  0
   -2.9245   -1.4850    3.0715 H   0  0  0  0  0  0  0  0  0  0  0  0
   -1.6216   -1.8214    1.9219 H   0  0  0  0  0  0  0  0  0  0  0  0
   -4.6064   -1.7551    1.2539 H   0  0  0  0  0  0  0  0  0  0  0  0
   -2.2111   -2.0362   -0.6279 H   0  0  0  0  0  0  0  0  0  0  0  0
   -3.4101   -3.2697   -0.2218 H   0  0  0  0  0  0  0  0  0  0  0  0
   -3.8940   -1.8299   -1.1329 H   0  0  0  0  0  0  0  0  0  0  0  0
   -5.3613    2.8880    1.0892 H   0  0  0  0  0  0  0  0  0  0  0  0
   -3.2083    3.9087    0.4777 H   0  0  0  0  0  0  0  0  0  0  0  0
   -1.3949    0.0097    0.3335 H   0  0  0  0  0  0  0  0  0  0  0  0
    2.8690    0.9502    1.6126 H   0  0  0  0  0  0  0  0  0  0  0  0
    1.9867    0.5435   -2.5900 H   0  0  0  0  0  0  0  0  0  0  0  0
    4.3195   -0.1504    0.2809 H   0  0  0  0  0  0  0  0  0  0  0  0
    6.4477   -0.7012   -2.1058 H   0  0  0  0  0  0  0  0  0  0  0  0
    5.6571   -2.2980   -1.9501 H   0  0  0  0  0  0  0  0  0  0  0  0
    7.6935   -2.1343    0.8387 H   0  0  0  0  0  0  0  0  0  0  0  0
   -6.4550    0.9991    1.4879 H   0  0  0  0  0  0  0  0  0  0  0  0
  1  2  1  0
  2  3  1  0
  2  4  1  0
  4  5  2  0
  5  6  1  0
  6  7  2  0
  7  8  1  0
  8  9  2  0
  8 10  1  0
 10 11  1  0
 11 12  2  0
 12 13  1  0
 13 14  2  0
 14 15  1  0
 15 16  2  0
 16 17  1  0
 14 18  1  0
 18 19  1  0
 19 20  2  0
 19 21  1  0
 21 22  1  0
 22 23  2  0
 22 24  1  0
 12 25  1  0
  5 26  1  0
  9  4  1  0
 16 11  1  0
  1 27  1  0
  1 28  1  0
  1 29  1  0
  2 30  1  0
  3 31  1  0
  3 32  1  0
  3 33  1  0
  6 34  1  0
  7 35  1  0
  9 36  1  0
 13 37  1  0
 15 38  1  0
 18 39  1  0
 21 40  1  0
 21 41  1  0
 24 42  1  0
 26 43  1  0
M  END
$$$$
