
     RDKit          3D

 25 22  0  0  0  0  0  0  0  0999 V2000
    1.6207    0.0040   -0.0496 C   0  0  0  0  0  0  0  0  0  0  0  0
    0.5956   -0.2973    1.0091 C   0  0  0  0  0  0  0  0  0  0  0  0
   -0.4870    0.0227   -0.0044 C   0  0  0  0  0  0  0  0  0  0  0  0
    0.5417   -0.0866   -1.1056 C   0  0  0  0  0  0  0  0  0  0  0  0
   -1.0224    1.3603    0.2346 C   0  0  0  0  0  0  0  0  0  0  0  0
   -2.2330    1.5096    0.4955 O   0  0  0  0  0  0  0  0  0  0  0  0
   -0.1870    2.4656    0.1720 O   0  0  0  0  0  1  0  0  0  0  0  0
   -1.5301   -0.9903   -0.1464 C   0  0  0  0  0  0  0  0  0  0  0  0
   -1.7206   -1.5447   -1.2583 O   0  0  0  0  0  0  0  0  0  0  0  0
   -2.3518   -1.3951    0.8980 O   0  0  0  0  0  1  0  0  0  0  0  0
    0.0117   -0.0023    0.2462 N   0  0  0  0  0  0  0  0  0  0  0  0
   -0.0019    0.0098    0.2565 N   0  0  0  0  0  0  0  0  0  0  0  0
    0.0000    0.0000    0.0000 Pt  0  0  0  0  0 15  0  0  0  0  0  0
    2.0469    1.0373   -0.0131 H   0  0  0  0  0  0  0  0  0  0  0  0
    2.3782   -0.8043   -0.0752 H   0  0  0  0  0  0  0  0  0  0  0  0
    0.6703    0.4242    1.8351 H   0  0  0  0  0  0  0  0  0  0  0  0
    0.5761   -1.3212    1.4030 H   0  0  0  0  0  0  0  0  0  0  0  0
    0.5415    0.7237   -1.8410 H   0  0  0  0  0  0  0  0  0  0  0  0
    0.5609   -1.1077   -1.5537 H   0  0  0  0  0  0  0  0  0  0  0  0
   -0.5711   -0.8036   -0.0810 H   0  0  0  0  0  0  0  0  0  0  0  0
   -0.4303    0.8787   -0.0805 H   0  0  0  0  0  0  0  0  0  0  0  0
    0.9897   -0.0728   -0.0847 H   0  0  0  0  0  0  0  0  0  0  0  0
    0.9829   -0.1477   -0.0848 H   0  0  0  0  0  0  0  0  0  0  0  0
   -0.5969   -0.7751   -0.0840 H   0  0  0  0  0  0  0  0  0  0  0  0
   -0.3840    0.9129   -0.0877 H   0  0  0  0  0  0  0  0  0  0  0  0
  1  2  1  0
  2  3  1  0
  3  4  1  0
  3  5  1  0
  5  6  2  0
  5  7  1  0
  3  8  1  0
  8  9  2  0
  8 10  1  0
  4  1  1  0
  1 14  1  0
  1 15  1  0
  2 16  1  0
  2 17  1  0
  4 18  1  0
  4 19  1  0
 11 20  1  0
 11 21  1  0
 11 22  1  0
 12 23  1  0
 12 24  1  0
 12 25  1  0
M  CHG  3   7  -1  10  -1  13   2
M  END
$$$$
