
     RDKit          3D

 49 50  0  0  0  0  0  0  0  0999 V2000
   -5.0661   -2.9128    0.5503 C   0  0  0  0  0  0  0  0  0  0  0  0
   -3.6767   -2.3859    0.8875 C   0  0  0  0  0  0  0  0  0  0  0  0
   -3.4987   -0.9077    0.5084 C   0  0  0  0  0  0  0  0  0  0  0  0
   -2.1017   -0.3800    0.8740 C   0  0  0  0  0  0  0  0  0  0  0  0
   -0.9742   -0.9979    0.0456 C   0  0  0  0  0  0  0  0  0  0  0  0
    0.3724   -0.3457    0.3709 C   0  0  0  0  0  0  0  0  0  0  0  0
    1.5038   -0.9689   -0.4527 C   0  0  0  0  0  0  0  0  0  0  0  0
    2.8736   -0.3602   -0.1227 C   0  0  0  0  0  0  0  0  0  0  0  0
    4.0092   -1.1288   -0.8231 C   0  0  0  0  0  0  0  0  0  0  0  0
    5.0533   -0.0701   -1.1460 C   0  0  0  0  0  0  0  0  0  0  0  0
    4.1884    1.1019   -1.5945 C   0  0  0  0  0  0  0  0  0  0  0  0
    3.0283    1.1054   -0.5895 C   0  0  0  0  0  0  0  0  0  0  0  0
    3.4735    2.0464    0.5370 C   0  0  0  0  0  0  0  0  0  0  0  0
    4.4679    2.9480   -0.1429 C   0  0  0  0  0  0  0  0  0  0  0  0
    4.9223    3.9638    0.3695 O   0  0  0  0  0  0  0  0  0  0  0  0
    4.8483    2.4688   -1.5167 C   0  0  0  0  0  0  0  0  0  0  0  0
   -4.4468   -0.1373    1.2608 O   0  0  0  0  0  0  0  0  0  0  0  0
   -5.3583    0.6165    0.4638 C   0  0  0  0  0  0  0  0  0  0  0  0
   -4.7010    1.8515   -0.1258 C   0  0  0  0  0  0  0  0  0  0  0  0
   -5.8409   -2.3931    1.1223 H   0  0  0  0  0  0  0  0  0  0  0  0
   -5.1326   -3.9787    0.7908 H   0  0  0  0  0  0  0  0  0  0  0  0
   -5.2825   -2.7914   -0.5158 H   0  0  0  0  0  0  0  0  0  0  0  0
   -3.5151   -2.5156    1.9645 H   0  0  0  0  0  0  0  0  0  0  0  0
   -2.9399   -3.0048    0.3654 H   0  0  0  0  0  0  0  0  0  0  0  0
   -3.6626   -0.7904   -0.5706 H   0  0  0  0  0  0  0  0  0  0  0  0
   -1.9144   -0.5439    1.9434 H   0  0  0  0  0  0  0  0  0  0  0  0
   -2.0906    0.7095    0.7425 H   0  0  0  0  0  0  0  0  0  0  0  0
   -0.9064   -2.0732    0.2425 H   0  0  0  0  0  0  0  0  0  0  0  0
   -1.1922   -0.8739   -1.0219 H   0  0  0  0  0  0  0  0  0  0  0  0
    0.5884   -0.4664    1.4394 H   0  0  0  0  0  0  0  0  0  0  0  0
    0.3100    0.7306    0.1746 H   0  0  0  0  0  0  0  0  0  0  0  0
    1.5356   -2.0476   -0.2529 H   0  0  0  0  0  0  0  0  0  0  0  0
    1.2898   -0.8507   -1.5224 H   0  0  0  0  0  0  0  0  0  0  0  0
    3.0247   -0.4333    0.9620 H   0  0  0  0  0  0  0  0  0  0  0  0
    4.4159   -1.9220   -0.1878 H   0  0  0  0  0  0  0  0  0  0  0  0
    3.6556   -1.5940   -1.7516 H   0  0  0  0  0  0  0  0  0  0  0  0
    5.7443   -0.3978   -1.9284 H   0  0  0  0  0  0  0  0  0  0  0  0
    5.6405    0.1742   -0.2529 H   0  0  0  0  0  0  0  0  0  0  0  0
    3.8240    0.9078   -2.6113 H   0  0  0  0  0  0  0  0  0  0  0  0
    2.1242    1.5028   -1.0653 H   0  0  0  0  0  0  0  0  0  0  0  0
    3.9835    1.5274    1.3538 H   0  0  0  0  0  0  0  0  0  0  0  0
    2.6308    2.6240    0.9254 H   0  0  0  0  0  0  0  0  0  0  0  0
    5.9335    2.4206   -1.6318 H   0  0  0  0  0  0  0  0  0  0  0  0
    4.4140    3.1550   -2.2500 H   0  0  0  0  0  0  0  0  0  0  0  0
   -5.7983   -0.0140   -0.3170 H   0  0  0  0  0  0  0  0  0  0  0  0
   -6.1729    0.9302    1.1248 H   0  0  0  0  0  0  0  0  0  0  0  0
   -3.9138    1.5824   -0.8365 H   0  0  0  0  0  0  0  0  0  0  0  0
   -5.4381    2.4682   -0.6482 H   0  0  0  0  0  0  0  0  0  0  0  0
   -4.2322    2.4510    0.6613 H   0  0  0  0  0  0  0  0  0  0  0  0
  1  2  1  0
  2  3  1  0
  3  4  1  0
  4  5  1  0
  5  6  1  0
  6  7  1  0
  7  8  1  0
  8  9  1  0
  9 10  1  0
 10 11  1  0
 11 12  1  0
 12 13  1  0
 13 14  1  0
 14 15  2  0
 14 16  1  0
  3 17  1  0
 17 18  1  0
 18 19  1  0
 12  8  1  0
 16 11  1  0
  1 20  1  0
  1 21  1  0
  1 22  1  0
  2 23  1  0
  2 24  1  0
  3 25  1  0
  4 26  1  0
  4 27  1  0
  5 28  1  0
  5 29  1  0
  6 30  1  0
  6 31  1  0
  7 32  1  0
  7 33  1  0
  8 34  1  0
  9 35  1  0
  9 36  1  0
 10 37  1  0
 10 38  1  0
 11 39  1  0
 12 40  1  0
 13 41  1  0
 13 42  1  0
 16 43  1  0
 16 44  1  0
 18 45  1  0
 18 46  1  0
 19 47  1  0
 19 48  1  0
 19 49  1  0
M  END
$$$$
