
     RDKit          3D

 58 62  0  0  0  0  0  0  0  0999 V2000
   -6.4194   -1.3577   -2.7614 C   0  0  0  0  0  0  0  0  0  0  0  0
   -4.9729   -1.2164   -2.7671 N   0  0  0  0  0  0  0  0  0  0  0  0
   -4.4290   -0.5671   -1.5718 C   0  0  0  0  0  0  0  0  0  0  0  0
   -3.0529   -1.2093   -1.3580 C   0  0  1  0  0  0  0  0  0  0  0  0
   -3.0266   -2.2454   -0.2309 C   0  0  0  0  0  0  0  0  0  0  0  0
   -2.1028   -3.3716   -0.7160 C   0  0  0  0  0  0  0  0  0  0  0  0
   -1.8597   -3.1250   -2.2051 C   0  0  0  0  0  0  0  0  0  0  0  0
   -2.8285   -2.0266   -2.6155 C   0  0  1  0  0  0  0  0  0  0  0  0
   -4.2431   -2.4559   -2.9982 C   0  0  0  0  0  0  0  0  0  0  0  0
   -0.8073   -3.6041    0.1058 C   0  0  0  0  0  0  0  0  0  0  0  0
   -0.5511   -2.5877    1.0645 O   0  0  0  0  0  0  0  0  0  0  0  0
    0.3449   -1.5963    0.8291 C   0  0  0  0  0  0  0  0  0  0  0  0
    0.5774   -0.7287    1.9140 C   0  0  0  0  0  0  0  0  0  0  0  0
    1.4488    0.3594    1.7658 C   0  0  0  0  0  0  0  0  0  0  0  0
    2.0995    0.6064    0.5295 C   0  0  0  0  0  0  0  0  0  0  0  0
    1.8665   -0.2630   -0.5455 C   0  0  0  0  0  0  0  0  0  0  0  0
    1.0024   -1.3438   -0.3762 C   0  0  0  0  0  0  0  0  0  0  0  0
    2.4214   -0.0907   -1.7479 N   0  0  0  0  0  0  0  0  0  0  0  0
    3.2174    0.9717   -1.9037 C   0  0  0  0  0  0  0  0  0  0  0  0
    3.5068    1.8747   -0.9693 N   0  0  0  0  0  0  0  0  0  0  0  0
    2.9678    1.6900    0.2551 C   0  0  0  0  0  0  0  0  0  0  0  0
    3.1714    2.7012    1.2318 N   0  0  0  0  0  0  0  0  0  0  0  0
    4.1106    3.7553    1.1689 C   0  0  0  0  0  0  0  0  0  0  0  0
    5.4610    3.5700    0.8263 C   0  0  0  0  0  0  0  0  0  0  0  0
    6.3633    4.6399    0.8389 C   0  0  0  0  0  0  0  0  0  0  0  0
    5.9180    5.9100    1.2335 C   0  0  0  0  0  0  0  0  0  0  0  0
    4.5946    6.0898    1.6296 C   0  0  0  0  0  0  0  0  0  0  0  0
    3.7033    5.0191    1.6121 C   0  0  0  0  0  0  0  0  0  0  0  0
    6.9532    7.2916    1.2765 Cl  0  0  0  0  0  0  0  0  0  0  0  0
    8.0011    4.3522    0.3770 Cl  0  0  0  0  0  0  0  0  0  0  0  0
    5.9104    2.3419    0.5363 F   0  0  0  0  0  0  0  0  0  0  0  0
   -0.1142   -1.0127    3.0680 O   0  0  0  0  0  0  0  0  0  0  0  0
    0.2395   -0.3185    4.2488 C   0  0  0  0  0  0  0  0  0  0  0  0
   -6.8594   -0.6080   -3.4323 H   0  0  0  0  0  0  0  0  0  0  0  0
   -6.8688   -1.2161   -1.7695 H   0  0  0  0  0  0  0  0  0  0  0  0
   -6.7465   -2.3405   -3.1243 H   0  0  0  0  0  0  0  0  0  0  0  0
   -5.0521   -0.6842   -0.6742 H   0  0  0  0  0  0  0  0  0  0  0  0
   -4.3239    0.5102   -1.7628 H   0  0  0  0  0  0  0  0  0  0  0  0
   -2.2595   -0.4651   -1.2170 H   0  0  0  0  0  0  0  0  0  0  0  0
   -2.7427   -1.7896    0.7268 H   0  0  0  0  0  0  0  0  0  0  0  0
   -4.0280   -2.6642   -0.0593 H   0  0  0  0  0  0  0  0  0  0  0  0
   -2.6849   -4.3091   -0.6614 H   0  0  0  0  0  0  0  0  0  0  0  0
   -1.9984   -4.0391   -2.8042 H   0  0  0  0  0  0  0  0  0  0  0  0
   -0.8313   -2.7896   -2.3881 H   0  0  0  0  0  0  0  0  0  0  0  0
   -2.4031   -1.4176   -3.4250 H   0  0  0  0  0  0  0  0  0  0  0  0
   -4.6076   -3.2814   -2.3725 H   0  0  0  0  0  0  0  0  0  0  0  0
   -4.2884   -2.7678   -4.0462 H   0  0  0  0  0  0  0  0  0  0  0  0
   -1.0244   -4.4863    0.7476 H   0  0  0  0  0  0  0  0  0  0  0  0
    0.0725   -3.9329   -0.4853 H   0  0  0  0  0  0  0  0  0  0  0  0
    1.6150    1.0337    2.6005 H   0  0  0  0  0  0  0  0  0  0  0  0
    0.8523   -1.9979   -1.2289 H   0  0  0  0  0  0  0  0  0  0  0  0
    3.6589    1.1159   -2.8817 H   0  0  0  0  0  0  0  0  0  0  0  0
    3.2083    2.2839    2.1698 H   0  0  0  0  0  0  0  0  0  0  0  0
    4.2404    7.0659    1.9534 H   0  0  0  0  0  0  0  0  0  0  0  0
    2.6659    5.1753    1.9209 H   0  0  0  0  0  0  0  0  0  0  0  0
   -0.3654   -0.7201    5.0701 H   0  0  0  0  0  0  0  0  0  0  0  0
    0.0067    0.7501    4.1694 H   0  0  0  0  0  0  0  0  0  0  0  0
    1.2925   -0.4782    4.5101 H   0  0  0  0  0  0  0  0  0  0  0  0
  1  2  1  0
  2  3  1  0
  3  4  1  0
  4  5  1  0
  5  6  1  0
  6  7  1  0
  7  8  1  0
  8  9  1  0
  6 10  1  0
 10 11  1  0
 11 12  1  0
 12 13  2  0
 13 14  1  0
 14 15  2  0
 15 16  1  0
 16 17  2  0
 16 18  1  0
 18 19  2  0
 19 20  1  0
 20 21  2  0
 21 22  1  0
 22 23  1  0
 23 24  2  0
 24 25  1  0
 25 26  2  0
 26 27  1  0
 27 28  2  0
 26 29  1  0
 25 30  1  0
 24 31  1  0
 13 32  1  0
 32 33  1  0
  9  2  1  0
  8  4  1  0
 17 12  1  0
 21 15  1  0
 28 23  1  0
  1 34  1  0
  1 35  1  0
  1 36  1  0
  3 37  1  0
  3 38  1  0
  4 39  1  1
  5 40  1  0
  5 41  1  0
  6 42  1  0
  7 43  1  0
  7 44  1  0
  8 45  1  6
  9 46  1  0
  9 47  1  0
 10 48  1  0
 10 49  1  0
 14 50  1  0
 17 51  1  0
 19 52  1  0
 22 53  1  0
 27 54  1  0
 28 55  1  0
 33 56  1  0
 33 57  1  0
 33 58  1  0
M  END
$$$$
