
     RDKit          3D

 18 17  0  0  0  0  0  0  0  0999 V2000
   -0.1291    0.5700   -0.4621 C   0  0  0  0  0  0  0  0  0  0  0  0
    0.2991   -0.8445   -0.0558 C   0  0  0  0  0  0  0  0  0  0  0  0
    1.8147   -1.0397   -0.0308 C   0  0  0  0  0  0  0  0  0  0  0  0
    2.4854   -0.1892    0.9458 N   0  0  0  0  0  0  0  0  0  0  0  0
   -1.6360    0.6882   -0.6874 C   0  0  0  0  0  0  0  0  0  0  0  0
   -2.3947    0.4241    0.5306 N   0  0  0  0  0  0  0  0  0  0  0  0
    0.3816    0.8496   -1.3932 H   0  0  0  0  0  0  0  0  0  0  0  0
    0.1783    1.2964    0.2986 H   0  0  0  0  0  0  0  0  0  0  0  0
   -0.1103   -1.0979    0.9317 H   0  0  0  0  0  0  0  0  0  0  0  0
   -0.1235   -1.5578   -0.7746 H   0  0  0  0  0  0  0  0  0  0  0  0
    2.2304   -0.8528   -1.0265 H   0  0  0  0  0  0  0  0  0  0  0  0
    2.0311   -2.0839    0.2168 H   0  0  0  0  0  0  0  0  0  0  0  0
    2.4274    0.7862    0.6532 H   0  0  0  0  0  0  0  0  0  0  0  0
    1.9781   -0.2369    1.8299 H   0  0  0  0  0  0  0  0  0  0  0  0
   -1.9505   -0.0120   -1.4692 H   0  0  0  0  0  0  0  0  0  0  0  0
   -1.8657    1.7002   -1.0407 H   0  0  0  0  0  0  0  0  0  0  0  0
   -2.2275    1.1588    1.2125 H   0  0  0  0  0  0  0  0  0  0  0  0
   -3.3890    0.4414    0.3211 H   0  0  0  0  0  0  0  0  0  0  0  0
  1  2  1  0
  2  3  1  0
  3  4  1  0
  1  5  1  0
  5  6  1  0
  1  7  1  0
  1  8  1  0
  2  9  1  0
  2 10  1  0
  3 11  1  0
  3 12  1  0
  4 13  1  0
  4 14  1  0
  5 15  1  0
  5 16  1  0
  6 17  1  0
  6 18  1  0
M  END
$$$$
