
     RDKit          3D

 31 33  0  0  0  0  0  0  0  0999 V2000
   -3.8490    1.5069   -0.1218 C   0  0  0  0  0  0  0  0  0  0  0  0
   -3.3933    0.0530   -0.2365 C   0  0  0  0  0  0  0  0  0  0  0  0
   -4.2223   -0.8476    0.6764 C   0  0  0  0  0  0  0  0  0  0  0  0
   -1.9209   -0.0658    0.0248 C   0  0  0  0  0  0  0  0  0  0  0  0
   -1.1587   -0.4641    1.1097 C   0  0  0  0  0  0  0  0  0  0  0  0
    0.1945   -0.3406    0.7143 C   0  0  0  0  0  0  0  0  0  0  0  0
    0.1767    0.1280   -0.5766 C   0  0  0  0  0  0  0  0  0  0  0  0
   -1.0972    0.3052   -1.0099 O   0  0  0  0  0  0  0  0  0  0  0  0
    1.3195    0.4090   -1.3988 C   0  0  0  0  0  0  0  0  0  0  0  0
    1.2837    0.8330   -2.5475 O   0  0  0  0  0  0  0  0  0  0  0  0
    2.6287    0.1384   -0.7257 C   0  0  0  0  0  0  0  0  0  0  0  0
    3.8169    0.3703   -1.4315 C   0  0  0  0  0  0  0  0  0  0  0  0
    5.0494    0.1254   -0.8235 C   0  0  0  0  0  0  0  0  0  0  0  0
    5.1038   -0.3504    0.4870 C   0  0  0  0  0  0  0  0  0  0  0  0
    3.9260   -0.5849    1.1994 C   0  0  0  0  0  0  0  0  0  0  0  0
    2.6825   -0.3430    0.6000 C   0  0  0  0  0  0  0  0  0  0  0  0
    1.4398   -0.6051    1.3940 C   0  0  0  0  0  0  0  0  0  0  0  0
    1.4914   -1.0156    2.5457 O   0  0  0  0  0  0  0  0  0  0  0  0
   -3.6170   -0.3844   -1.5800 O   0  0  0  0  0  0  0  0  0  0  0  0
   -4.9109    1.6039   -0.3753 H   0  0  0  0  0  0  0  0  0  0  0  0
   -3.3041    2.1494   -0.8239 H   0  0  0  0  0  0  0  0  0  0  0  0
   -3.6949    1.9014    0.8885 H   0  0  0  0  0  0  0  0  0  0  0  0
   -4.1238   -0.5654    1.7302 H   0  0  0  0  0  0  0  0  0  0  0  0
   -3.9214   -1.8972    0.5739 H   0  0  0  0  0  0  0  0  0  0  0  0
   -5.2840   -0.8035    0.4069 H   0  0  0  0  0  0  0  0  0  0  0  0
   -1.5292   -0.8064    2.0672 H   0  0  0  0  0  0  0  0  0  0  0  0
    3.7881    0.7415   -2.4551 H   0  0  0  0  0  0  0  0  0  0  0  0
    5.9707    0.3061   -1.3742 H   0  0  0  0  0  0  0  0  0  0  0  0
    6.0676   -0.5398    0.9558 H   0  0  0  0  0  0  0  0  0  0  0  0
    3.9837   -0.9565    2.2216 H   0  0  0  0  0  0  0  0  0  0  0  0
   -2.8962   -0.0010   -2.1151 H   0  0  0  0  0  0  0  0  0  0  0  0
  1  2  1  0
  2  3  1  0
  2  4  1  0
  4  5  2  0
  5  6  1  0
  6  7  2  0
  7  8  1  0
  7  9  1  0
  9 10  2  0
  9 11  1  0
 11 12  2  0
 12 13  1  0
 13 14  2  0
 14 15  1  0
 15 16  2  0
 16 17  1  0
 17 18  2  0
  2 19  1  0
  8  4  1  0
 17  6  1  0
 16 11  1  0
  1 20  1  0
  1 21  1  0
  1 22  1  0
  3 23  1  0
  3 24  1  0
  3 25  1  0
  5 26  1  0
 12 27  1  0
 13 28  1  0
 14 29  1  0
 15 30  1  0
 19 31  1  0
M  END
$$$$
