
     RDKit          3D

 51 54  0  0  0  0  0  0  0  0999 V2000
    1.9606    0.7664   -1.5972 C   0  0  0  0  0  0  0  0  0  0  0  0
    1.8882    0.3273   -0.1102 C   0  0  2  0  0  0  0  0  0  0  0  0
    2.7640    1.3119    0.7292 C   0  0  0  0  0  0  0  0  0  0  0  0
    4.1879    0.8436    1.0306 C   0  0  0  0  0  0  0  0  0  0  0  0
    4.7385   -0.0677   -0.0344 C   0  0  0  0  0  0  0  0  0  0  0  0
    5.8595    0.1047   -0.5119 O   0  0  0  0  0  0  0  0  0  0  0  0
    3.8941   -1.2571   -0.4291 C   0  0  0  0  0  0  0  0  0  0  0  0
    2.4494   -1.1187    0.0739 C   0  0  2  0  0  0  0  0  0  0  0  0
    1.5658   -2.1958   -0.5689 C   0  0  0  0  0  0  0  0  0  0  0  0
    0.1323   -2.1299   -0.0559 C   0  0  0  0  0  0  0  0  0  0  0  0
   -0.4842   -0.7400   -0.2548 C   0  0  2  0  0  0  0  0  0  0  0  0
    0.4017    0.3607    0.4086 C   0  0  2  0  0  0  0  0  0  0  0  0
   -0.2656    1.7625    0.3420 C   0  0  0  0  0  0  0  0  0  0  0  0
   -1.7217    1.7695    0.8419 C   0  0  0  0  0  0  0  0  0  0  0  0
   -2.5642    0.7039    0.1282 C   0  0  1  0  0  0  0  0  0  0  0  0
   -1.8907   -0.6644    0.3500 C   0  0  1  0  0  0  0  0  0  0  0  0
   -2.9522   -1.6618   -0.1064 C   0  0  0  0  0  0  0  0  0  0  0  0
   -4.2820   -1.0050    0.3063 C   0  0  0  0  0  0  0  0  0  0  0  0
   -3.9314    0.4186    0.7803 C   0  0  2  0  0  0  0  0  0  0  0  0
   -4.9422    1.3362    0.4108 O   0  0  0  0  0  0  0  0  0  0  0  0
   -2.7500    1.0990   -1.3590 C   0  0  0  0  0  0  0  0  0  0  0  0
    1.5926    1.7877   -1.7358 H   0  0  0  0  0  0  0  0  0  0  0  0
    2.9874    0.7661   -1.9760 H   0  0  0  0  0  0  0  0  0  0  0  0
    1.3747    0.1168   -2.2528 H   0  0  0  0  0  0  0  0  0  0  0  0
    2.2915    1.5096    1.7000 H   0  0  0  0  0  0  0  0  0  0  0  0
    2.8098    2.2877    0.2279 H   0  0  0  0  0  0  0  0  0  0  0  0
    4.8479    1.7102    1.1460 H   0  0  0  0  0  0  0  0  0  0  0  0
    4.2138    0.2909    1.9773 H   0  0  0  0  0  0  0  0  0  0  0  0
    4.3513   -2.1569   -0.0029 H   0  0  0  0  0  0  0  0  0  0  0  0
    3.9225   -1.3440   -1.5210 H   0  0  0  0  0  0  0  0  0  0  0  0
    2.4620   -1.3266    1.1551 H   0  0  0  0  0  0  0  0  0  0  0  0
    1.9755   -3.1889   -0.3465 H   0  0  0  0  0  0  0  0  0  0  0  0
    1.5694   -2.0985   -1.6609 H   0  0  0  0  0  0  0  0  0  0  0  0
    0.1174   -2.3974    1.0084 H   0  0  0  0  0  0  0  0  0  0  0  0
   -0.4641   -2.8860   -0.5795 H   0  0  0  0  0  0  0  0  0  0  0  0
   -0.5480   -0.5604   -1.3335 H   0  0  0  0  0  0  0  0  0  0  0  0
    0.4470    0.1096    1.4807 H   0  0  0  0  0  0  0  0  0  0  0  0
    0.3022    2.4777    0.9476 H   0  0  0  0  0  0  0  0  0  0  0  0
   -0.2456    2.1485   -0.6812 H   0  0  0  0  0  0  0  0  0  0  0  0
   -1.7200    1.5863    1.9243 H   0  0  0  0  0  0  0  0  0  0  0  0
   -2.1555    2.7663    0.6984 H   0  0  0  0  0  0  0  0  0  0  0  0
   -1.7758   -0.8219    1.4359 H   0  0  0  0  0  0  0  0  0  0  0  0
   -2.9211   -1.8132   -1.1911 H   0  0  0  0  0  0  0  0  0  0  0  0
   -2.8279   -2.6402    0.3688 H   0  0  0  0  0  0  0  0  0  0  0  0
   -4.9897   -1.0000   -0.5304 H   0  0  0  0  0  0  0  0  0  0  0  0
   -4.7563   -1.5651    1.1200 H   0  0  0  0  0  0  0  0  0  0  0  0
   -3.8538    0.4234    1.8749 H   0  0  0  0  0  0  0  0  0  0  0  0
   -4.6523    2.2202    0.6932 H   0  0  0  0  0  0  0  0  0  0  0  0
   -1.8049    1.1471   -1.9060 H   0  0  0  0  0  0  0  0  0  0  0  0
   -3.3934    0.3983   -1.9005 H   0  0  0  0  0  0  0  0  0  0  0  0
   -3.2146    2.0887   -1.4394 H   0  0  0  0  0  0  0  0  0  0  0  0
  2  1  1  6
  2  3  1  0
  3  4  1  0
  4  5  1  0
  5  6  2  0
  5  7  1  0
  7  8  1  0
  8  9  1  0
  9 10  1  0
 10 11  1  0
 11 12  1  0
 12 13  1  0
 13 14  1  0
 14 15  1  0
 15 16  1  0
 16 17  1  0
 17 18  1  0
 18 19  1  0
 19 20  1  0
 15 21  1  6
  8  2  1  0
 12  2  1  0
 16 11  1  0
 19 15  1  0
  1 22  1  0
  1 23  1  0
  1 24  1  0
  3 25  1  0
  3 26  1  0
  4 27  1  0
  4 28  1  0
  7 29  1  0
  7 30  1  0
  8 31  1  1
  9 32  1  0
  9 33  1  0
 10 34  1  0
 10 35  1  0
 11 36  1  6
 12 37  1  1
 13 38  1  0
 13 39  1  0
 14 40  1  0
 14 41  1  0
 16 42  1  1
 17 43  1  0
 17 44  1  0
 18 45  1  0
 18 46  1  0
 19 47  1  1
 20 48  1  0
 21 49  1  0
 21 50  1  0
 21 51  1  0
M  END
$$$$
