
     RDKit          3D

 69 74  0  0  0  0  0  0  0  0999 V2000
   -1.3912   -0.2076    2.4272 C   0  0  0  0  0  0  0  0  0  0  0  0
   -1.0931   -0.1226    0.9236 C   0  0  0  0  0  0  0  0  0  0  0  0
   -2.4631   -0.1241    0.1934 C   0  0  0  0  0  0  0  0  0  0  0  0
   -3.2288   -1.3165    0.4523 O   0  0  0  0  0  0  0  0  0  0  0  0
   -3.2543   -1.7515    1.7527 C   0  0  0  0  0  0  0  0  0  0  0  0
   -4.1697   -2.7601    2.0473 C   0  0  0  0  0  0  0  0  0  0  0  0
   -4.2504   -3.2604    3.3456 C   0  0  0  0  0  0  0  0  0  0  0  0
   -3.4267   -2.7750    4.3484 C   0  0  0  0  0  0  0  0  0  0  0  0
   -2.5149   -1.7763    4.0407 C   0  0  0  0  0  0  0  0  0  0  0  0
   -2.4049   -1.2517    2.7463 C   0  0  0  0  0  0  0  0  0  0  0  0
   -1.6947   -1.2733    5.0149 O   0  0  0  0  0  0  0  0  0  0  0  0
   -5.1257   -4.2446    3.6840 O   0  0  0  0  0  0  0  0  0  0  0  0
   -2.3003   -0.0293   -1.3179 C   0  0  0  0  0  0  0  0  0  0  0  0
   -2.6037    1.1683   -1.9912 C   0  0  0  0  0  0  0  0  0  0  0  0
   -2.4224    1.2390   -3.3677 C   0  0  0  0  0  0  0  0  0  0  0  0
   -1.9172    0.1620   -4.0829 C   0  0  0  0  0  0  0  0  0  0  0  0
   -1.6066   -1.0290   -3.4415 C   0  0  0  0  0  0  0  0  0  0  0  0
   -1.8053   -1.1238   -2.0590 C   0  0  0  0  0  0  0  0  0  0  0  0
   -1.7189    0.2630   -5.4268 O   0  0  0  0  0  0  0  0  0  0  0  0
   -2.7040    2.3777   -4.0818 O   0  0  0  0  0  0  0  0  0  0  0  0
   -0.3728    1.1029    0.6932 O   0  0  0  0  0  0  0  0  0  0  0  0
    1.0074    0.9332    0.2949 C   0  0  0  0  0  0  0  0  0  0  0  0
    1.5421    2.3892   -0.0106 C   0  0  0  0  0  0  0  0  0  0  0  0
    1.1910    2.7799   -1.4580 C   0  0  0  0  0  0  0  0  0  0  0  0
    1.8001    1.7490   -2.3698 C   0  0  0  0  0  0  0  0  0  0  0  0
    2.4574    1.9904   -3.5835 C   0  0  0  0  0  0  0  0  0  0  0  0
    2.9784    0.9509   -4.3653 C   0  0  0  0  0  0  0  0  0  0  0  0
    2.8095   -0.3540   -3.9425 C   0  0  0  0  0  0  0  0  0  0  0  0
    2.1344   -0.6437   -2.7664 C   0  0  0  0  0  0  0  0  0  0  0  0
    1.6622    0.4137   -1.9815 C   0  0  0  0  0  0  0  0  0  0  0  0
    1.0449    0.0351   -0.8266 O   0  0  0  0  0  0  0  0  0  0  0  0
    3.3156   -1.3505   -4.7168 O   0  0  0  0  0  0  0  0  0  0  0  0
    2.6329    3.2697   -4.0244 O   0  0  0  0  0  0  0  0  0  0  0  0
    1.6125    4.1189   -1.7017 O   0  0  0  0  0  0  0  0  0  0  0  0
    2.9611    2.6130    0.2031 O   0  0  0  0  0  0  0  0  0  0  0  0
    1.8356    0.2978    1.4490 C   0  0  0  0  0  0  0  0  0  0  0  0
    1.8534    0.8777    2.7346 C   0  0  0  0  0  0  0  0  0  0  0  0
    2.5978    0.2812    3.7580 C   0  0  0  0  0  0  0  0  0  0  0  0
    3.3526   -0.8577    3.5194 C   0  0  0  0  0  0  0  0  0  0  0  0
    3.3749   -1.4331    2.2610 C   0  0  0  0  0  0  0  0  0  0  0  0
    2.6172   -0.8652    1.2306 C   0  0  0  0  0  0  0  0  0  0  0  0
    4.0851   -1.4277    4.5212 O   0  0  0  0  0  0  0  0  0  0  0  0
    2.5978    0.8220    5.0147 O   0  0  0  0  0  0  0  0  0  0  0  0
   -0.4552   -0.4152    2.9573 H   0  0  0  0  0  0  0  0  0  0  0  0
   -1.7427    0.7677    2.7992 H   0  0  0  0  0  0  0  0  0  0  0  0
   -0.5248   -1.0158    0.6251 H   0  0  0  0  0  0  0  0  0  0  0  0
   -3.0622    0.7347    0.5239 H   0  0  0  0  0  0  0  0  0  0  0  0
   -4.8102   -3.1374    1.2526 H   0  0  0  0  0  0  0  0  0  0  0  0
   -3.5216   -3.1722    5.3539 H   0  0  0  0  0  0  0  0  0  0  0  0
   -1.5881   -1.9681    5.6987 H   0  0  0  0  0  0  0  0  0  0  0  0
   -5.7585   -4.3666    2.9518 H   0  0  0  0  0  0  0  0  0  0  0  0
   -2.9777    2.0261   -1.4435 H   0  0  0  0  0  0  0  0  0  0  0  0
   -1.2134   -1.8689   -4.0062 H   0  0  0  0  0  0  0  0  0  0  0  0
   -1.5719   -2.0596   -1.5605 H   0  0  0  0  0  0  0  0  0  0  0  0
   -2.3350    0.9880   -5.6963 H   0  0  0  0  0  0  0  0  0  0  0  0
   -2.8555    3.0935   -3.4415 H   0  0  0  0  0  0  0  0  0  0  0  0
    1.0561    3.0898    0.6856 H   0  0  0  0  0  0  0  0  0  0  0  0
    0.1038    2.7742   -1.5892 H   0  0  0  0  0  0  0  0  0  0  0  0
    3.5156    1.1460   -5.2880 H   0  0  0  0  0  0  0  0  0  0  0  0
    1.9706   -1.6680   -2.4309 H   0  0  0  0  0  0  0  0  0  0  0  0
    3.0977   -2.2016   -4.2963 H   0  0  0  0  0  0  0  0  0  0  0  0
    2.8707    3.2460   -4.9708 H   0  0  0  0  0  0  0  0  0  0  0  0
    2.5170    4.1887   -1.3386 H   0  0  0  0  0  0  0  0  0  0  0  0
    3.4546    1.9744   -0.3399 H   0  0  0  0  0  0  0  0  0  0  0  0
    1.2650    1.7682    2.9292 H   0  0  0  0  0  0  0  0  0  0  0  0
    3.9531   -2.3320    2.0661 H   0  0  0  0  0  0  0  0  0  0  0  0
    2.6340   -1.3598    0.2651 H   0  0  0  0  0  0  0  0  0  0  0  0
    4.9374   -1.7126    4.1311 H   0  0  0  0  0  0  0  0  0  0  0  0
    2.0459    1.6233    5.0222 H   0  0  0  0  0  0  0  0  0  0  0  0
  1  2  1  0
  2  3  1  0
  3  4  1  0
  4  5  1  0
  5  6  2  0
  6  7  1  0
  7  8  2  0
  8  9  1  0
  9 10  2  0
  9 11  1  0
  7 12  1  0
  3 13  1  0
 13 14  2  0
 14 15  1  0
 15 16  2  0
 16 17  1  0
 17 18  2  0
 16 19  1  0
 15 20  1  0
  2 21  1  0
 21 22  1  0
 22 23  1  0
 23 24  1  0
 24 25  1  0
 25 26  2  0
 26 27  1  0
 27 28  2  0
 28 29  1  0
 29 30  2  0
 30 31  1  0
 28 32  1  0
 26 33  1  0
 24 34  1  0
 23 35  1  0
 22 36  1  0
 36 37  2  0
 37 38  1  0
 38 39  2  0
 39 40  1  0
 40 41  2  0
 39 42  1  0
 38 43  1  0
 10  1  1  0
 10  5  1  0
 18 13  1  0
 31 22  1  0
 30 25  1  0
 41 36  1  0
  1 44  1  0
  1 45  1  0
  2 46  1  0
  3 47  1  0
  6 48  1  0
  8 49  1  0
 11 50  1  0
 12 51  1  0
 14 52  1  0
 17 53  1  0
 18 54  1  0
 19 55  1  0
 20 56  1  0
 23 57  1  0
 24 58  1  0
 27 59  1  0
 29 60  1  0
 32 61  1  0
 33 62  1  0
 34 63  1  0
 35 64  1  0
 37 65  1  0
 40 66  1  0
 41 67  1  0
 42 68  1  0
 43 69  1  0
M  END
$$$$
