
     RDKit          3D

 74 78  0  0  0  0  0  0  0  0999 V2000
    5.4083    2.9662   -0.3528 C   0  0  0  0  0  0  0  0  0  0  0  0
    5.4565    1.5627   -0.9025 C   0  0  0  0  0  0  0  0  0  0  0  0
    6.4399    1.2834   -1.8679 C   0  0  0  0  0  0  0  0  0  0  0  0
    6.5416    0.0137   -2.4192 C   0  0  0  0  0  0  0  0  0  0  0  0
    5.6667   -0.9925   -2.0372 C   0  0  0  0  0  0  0  0  0  0  0  0
    4.6599   -0.7449   -1.0894 C   0  0  0  0  0  0  0  0  0  0  0  0
    4.5448    0.5454   -0.5071 C   0  0  0  0  0  0  0  0  0  0  0  0
    3.4787    0.8270    0.5477 C   0  0  0  0  0  0  0  0  0  0  0  0
    2.2948    1.6688    0.0335 C   0  0  1  0  0  0  0  0  0  0  0  0
    1.2289    0.8470   -0.7261 C   0  0  0  0  0  0  0  0  0  0  0  0
    1.1198    1.0078   -1.9488 O   0  0  0  0  0  0  0  0  0  0  0  0
    0.3611   -0.0043   -0.0474 N   0  0  0  0  0  0  0  0  0  0  0  0
    0.4284   -0.3696    1.3730 C   0  0  0  0  0  0  0  0  0  0  0  0
    0.5775   -1.8664    1.4987 C   0  0  0  0  0  0  0  0  0  0  0  0
    1.4731   -2.4581    2.3944 C   0  0  0  0  0  0  0  0  0  0  0  0
    1.5706   -3.8478    2.4651 C   0  0  0  0  0  0  0  0  0  0  0  0
    0.7673   -4.6493    1.6551 C   0  0  0  0  0  0  0  0  0  0  0  0
   -0.1449   -4.0681    0.7738 C   0  0  0  0  0  0  0  0  0  0  0  0
   -0.2373   -2.6775    0.6876 C   0  0  0  0  0  0  0  0  0  0  0  0
   -1.2341   -1.9923   -0.2148 C   0  0  0  0  0  0  0  0  0  0  0  0
   -0.6671   -0.7063   -0.8667 C   0  0  1  0  0  0  0  0  0  0  0  0
   -1.8739    0.2127   -1.1929 C   0  0  0  0  0  0  0  0  0  0  0  0
   -2.8024   -0.1614   -1.9088 O   0  0  0  0  0  0  0  0  0  0  0  0
   -1.8676    1.4284   -0.5215 N   0  0  0  0  0  0  0  0  0  0  0  0
   -3.0785    2.1901   -0.2668 C   0  0  1  0  0  0  0  0  0  0  0  0
   -3.6581    2.9574   -1.4514 C   0  0  0  0  0  0  0  0  0  0  0  0
   -4.1662    2.1494   -2.6065 C   0  0  0  0  0  0  0  0  0  0  0  0
   -3.6724    2.0926   -3.7204 O   0  0  0  0  0  0  0  0  0  0  0  0
   -5.3213    1.5145   -2.3335 O   0  0  0  0  0  0  0  0  0  0  0  0
   -3.9948    1.3434    0.5766 C   0  0  0  0  0  0  0  0  0  0  0  0
   -3.6038    0.5512    1.5641 N   0  0  0  0  0  0  0  0  0  0  0  0
   -4.7425   -0.0736    2.0117 C   0  0  0  0  0  0  0  0  0  0  0  0
   -4.9015   -1.0597    2.9976 C   0  0  0  0  0  0  0  0  0  0  0  0
   -6.1902   -1.5470    3.2557 C   0  0  0  0  0  0  0  0  0  0  0  0
   -7.2957   -1.0579    2.5520 C   0  0  0  0  0  0  0  0  0  0  0  0
   -7.1569   -0.0697    1.5693 C   0  0  0  0  0  0  0  0  0  0  0  0
   -5.8594    0.3877    1.3238 C   0  0  0  0  0  0  0  0  0  0  0  0
   -5.3617    1.2938    0.4263 N   0  0  0  0  0  0  0  0  0  0  0  0
    1.6323    2.4634    1.1082 N   0  0  0  0  0  0  0  0  0  0  0  0
    3.7541   -1.8935   -0.7145 C   0  0  0  0  0  0  0  0  0  0  0  0
    7.5050   -0.2892   -3.3315 O   0  0  0  0  0  0  0  0  0  0  0  0
    5.2356    2.9746    0.7266 H   0  0  0  0  0  0  0  0  0  0  0  0
    4.6253    3.5390   -0.8553 H   0  0  0  0  0  0  0  0  0  0  0  0
    6.3581    3.4853   -0.5191 H   0  0  0  0  0  0  0  0  0  0  0  0
    7.1273    2.0658   -2.1767 H   0  0  0  0  0  0  0  0  0  0  0  0
    5.7739   -1.9795   -2.4844 H   0  0  0  0  0  0  0  0  0  0  0  0
    3.1368   -0.1104    0.9844 H   0  0  0  0  0  0  0  0  0  0  0  0
    3.9707    1.3335    1.3863 H   0  0  0  0  0  0  0  0  0  0  0  0
    2.6592    2.4118   -0.6845 H   0  0  0  0  0  0  0  0  0  0  0  0
    1.2411    0.1320    1.8975 H   0  0  0  0  0  0  0  0  0  0  0  0
   -0.5072   -0.0573    1.8495 H   0  0  0  0  0  0  0  0  0  0  0  0
    2.1049   -1.8490    3.0362 H   0  0  0  0  0  0  0  0  0  0  0  0
    2.2777   -4.3060    3.1526 H   0  0  0  0  0  0  0  0  0  0  0  0
    0.8496   -5.7321    1.7093 H   0  0  0  0  0  0  0  0  0  0  0  0
   -0.7722   -4.7036    0.1530 H   0  0  0  0  0  0  0  0  0  0  0  0
   -1.5656   -2.6745   -1.0103 H   0  0  0  0  0  0  0  0  0  0  0  0
   -2.1220   -1.7670    0.3899 H   0  0  0  0  0  0  0  0  0  0  0  0
   -0.1980   -0.9800   -1.8222 H   0  0  0  0  0  0  0  0  0  0  0  0
   -1.2136    1.4173    0.2484 H   0  0  0  0  0  0  0  0  0  0  0  0
   -2.7350    2.9776    0.4202 H   0  0  0  0  0  0  0  0  0  0  0  0
   -2.8886    3.6280   -1.8568 H   0  0  0  0  0  0  0  0  0  0  0  0
   -4.4773    3.6124   -1.1244 H   0  0  0  0  0  0  0  0  0  0  0  0
   -5.4130    0.9180   -3.1122 H   0  0  0  0  0  0  0  0  0  0  0  0
   -4.0364   -1.4437    3.5303 H   0  0  0  0  0  0  0  0  0  0  0  0
   -6.3312   -2.3283    4.0020 H   0  0  0  0  0  0  0  0  0  0  0  0
   -8.2848   -1.4595    2.7689 H   0  0  0  0  0  0  0  0  0  0  0  0
   -8.0127    0.3016    1.0153 H   0  0  0  0  0  0  0  0  0  0  0  0
   -5.8898    1.7502   -0.3094 H   0  0  0  0  0  0  0  0  0  0  0  0
    2.3400    3.0398    1.5660 H   0  0  0  0  0  0  0  0  0  0  0  0
    1.0081    3.1268    0.6447 H   0  0  0  0  0  0  0  0  0  0  0  0
    3.9892   -2.7994   -1.2877 H   0  0  0  0  0  0  0  0  0  0  0  0
    2.7098   -1.6409   -0.9259 H   0  0  0  0  0  0  0  0  0  0  0  0
    3.8774   -2.1437    0.3462 H   0  0  0  0  0  0  0  0  0  0  0  0
    8.0832    0.4840   -3.4439 H   0  0  0  0  0  0  0  0  0  0  0  0
  1  2  1  0
  2  3  2  0
  3  4  1  0
  4  5  2  0
  5  6  1  0
  6  7  2  0
  7  8  1  0
  8  9  1  0
  9 10  1  0
 10 11  2  0
 10 12  1  0
 12 13  1  0
 13 14  1  0
 14 15  2  0
 15 16  1  0
 16 17  2  0
 17 18  1  0
 18 19  2  0
 19 20  1  0
 20 21  1  0
 21 22  1  0
 22 23  2  0
 22 24  1  0
 24 25  1  0
 25 26  1  0
 26 27  1  0
 27 28  2  0
 27 29  1  0
 25 30  1  0
 30 31  2  0
 31 32  1  0
 32 33  2  0
 33 34  1  0
 34 35  2  0
 35 36  1  0
 36 37  2  0
 37 38  1  0
  9 39  1  0
  6 40  1  0
  4 41  1  0
  7  2  1  0
 21 12  1  0
 19 14  1  0
 38 30  1  0
 37 32  1  0
  1 42  1  0
  1 43  1  0
  1 44  1  0
  3 45  1  0
  5 46  1  0
  8 47  1  0
  8 48  1  0
  9 49  1  6
 13 50  1  0
 13 51  1  0
 15 52  1  0
 16 53  1  0
 17 54  1  0
 18 55  1  0
 20 56  1  0
 20 57  1  0
 21 58  1  6
 24 59  1  0
 25 60  1  1
 26 61  1  0
 26 62  1  0
 29 63  1  0
 33 64  1  0
 34 65  1  0
 35 66  1  0
 36 67  1  0
 38 68  1  0
 39 69  1  0
 39 70  1  0
 40 71  1  0
 40 72  1  0
 40 73  1  0
 41 74  1  0
M  END
$$$$
