
     RDKit          3D

 29 28  0  0  0  0  0  0  0  0999 V2000
    2.7644   -0.1282    0.8519 C   0  0  0  0  0  0  0  0  0  0  0  0
    2.0320   -1.4650    0.6906 C   0  0  0  0  0  0  0  0  0  0  0  0
    0.7642   -1.4356   -0.1706 C   0  0  0  0  0  0  0  0  0  0  0  0
   -0.1941   -0.4489    0.3289 N   0  0  0  0  0  0  0  0  0  0  0  0
   -1.4807   -0.5561   -0.3539 C   0  0  0  0  0  0  0  0  0  0  0  0
   -2.3873    0.5884    0.1022 C   0  0  0  0  0  0  0  0  0  0  0  0
   -3.8168    0.3785   -0.3895 C   0  0  0  0  0  0  0  0  0  0  0  0
   -4.6481    1.5303   -0.0847 N   0  0  0  0  0  0  0  0  0  0  0  0
    3.1476    0.5129   -0.4847 C   0  0  0  0  0  0  0  0  0  0  0  0
    4.0217    1.6640   -0.2873 N   0  0  0  0  0  0  0  0  0  0  0  0
    3.6688   -0.3084    1.4470 H   0  0  0  0  0  0  0  0  0  0  0  0
    2.1509    0.5713    1.4281 H   0  0  0  0  0  0  0  0  0  0  0  0
    2.7261   -2.1923    0.2533 H   0  0  0  0  0  0  0  0  0  0  0  0
    1.7789   -1.8382    1.6910 H   0  0  0  0  0  0  0  0  0  0  0  0
    0.3135   -2.4316   -0.1503 H   0  0  0  0  0  0  0  0  0  0  0  0
    1.0208   -1.2172   -1.2155 H   0  0  0  0  0  0  0  0  0  0  0  0
   -0.3393   -0.5852    1.3292 H   0  0  0  0  0  0  0  0  0  0  0  0
   -1.9475   -1.5186   -0.1208 H   0  0  0  0  0  0  0  0  0  0  0  0
   -1.3548   -0.4982   -1.4387 H   0  0  0  0  0  0  0  0  0  0  0  0
   -1.9935    1.5456   -0.2634 H   0  0  0  0  0  0  0  0  0  0  0  0
   -2.3928    0.6486    1.2000 H   0  0  0  0  0  0  0  0  0  0  0  0
   -3.8379    0.2041   -1.4671 H   0  0  0  0  0  0  0  0  0  0  0  0
   -4.2349   -0.5092    0.0960 H   0  0  0  0  0  0  0  0  0  0  0  0
   -4.4699    1.8781    0.8611 H   0  0  0  0  0  0  0  0  0  0  0  0
   -5.6392    1.2661   -0.1236 H   0  0  0  0  0  0  0  0  0  0  0  0
    2.2592    0.8520   -1.0232 H   0  0  0  0  0  0  0  0  0  0  0  0
    3.6668   -0.2138   -1.1139 H   0  0  0  0  0  0  0  0  0  0  0  0
    3.5621    2.3394    0.3226 H   0  0  0  0  0  0  0  0  0  0  0  0
    4.8599    1.3670    0.2156 H   0  0  0  0  0  0  0  0  0  0  0  0
  1  2  1  0
  2  3  1  0
  3  4  1  0
  4  5  1  0
  5  6  1  0
  6  7  1  0
  7  8  1  0
  1  9  1  0
  9 10  1  0
  1 11  1  0
  1 12  1  0
  2 13  1  0
  2 14  1  0
  3 15  1  0
  3 16  1  0
  4 17  1  0
  5 18  1  0
  5 19  1  0
  6 20  1  0
  6 21  1  0
  7 22  1  0
  7 23  1  0
  8 24  1  0
  8 25  1  0
  9 26  1  0
  9 27  1  0
 10 28  1  0
 10 29  1  0
M  END
$$$$
