
     RDKit          3D

 40 39  0  0  0  0  0  0  0  0999 V2000
   -0.5350   -1.0377    0.0758 C   0  0  0  0  0  0  0  0  0  0  0  0
    0.9640   -0.7232   -0.0142 C   0  0  0  0  0  0  0  0  0  0  0  0
    1.3982    0.3852    0.9481 C   0  0  0  0  0  0  0  0  0  0  0  0
    2.7920    0.8085    0.7685 N   0  0  0  0  0  0  0  0  0  0  0  0
    3.7807   -0.1645    1.2459 C   0  0  0  0  0  0  0  0  0  0  0  0
    4.3866   -1.0349    0.1408 C   0  0  0  0  0  0  0  0  0  0  0  0
    4.9549   -0.2747   -1.0603 C   0  0  0  0  0  0  0  0  0  0  0  0
    6.0347    0.6367   -0.6934 N   0  0  0  0  0  0  0  0  0  0  0  0
   -1.4241    0.0715   -0.5009 C   0  0  0  0  0  0  0  0  0  0  0  0
   -2.8547   -0.2414   -0.4367 N   0  0  0  0  0  0  0  0  0  0  0  0
   -3.3970   -0.1436    0.9169 C   0  0  0  0  0  0  0  0  0  0  0  0
   -4.9130   -0.3626    0.9412 C   0  0  0  0  0  0  0  0  0  0  0  0
   -5.7430    0.6530    0.1499 C   0  0  0  0  0  0  0  0  0  0  0  0
   -5.5578    2.0311    0.5888 N   0  0  0  0  0  0  0  0  0  0  0  0
   -0.7875   -1.2419    1.1208 H   0  0  0  0  0  0  0  0  0  0  0  0
   -0.7233   -1.9652   -0.4818 H   0  0  0  0  0  0  0  0  0  0  0  0
    1.5054   -1.6441    0.2282 H   0  0  0  0  0  0  0  0  0  0  0  0
    1.2253   -0.4557   -1.0465 H   0  0  0  0  0  0  0  0  0  0  0  0
    1.2198    0.0862    1.9882 H   0  0  0  0  0  0  0  0  0  0  0  0
    0.7823    1.2725    0.7755 H   0  0  0  0  0  0  0  0  0  0  0  0
    2.9178    1.6677    1.3079 H   0  0  0  0  0  0  0  0  0  0  0  0
    4.5940    0.3959    1.7229 H   0  0  0  0  0  0  0  0  0  0  0  0
    3.3668   -0.8014    2.0383 H   0  0  0  0  0  0  0  0  0  0  0  0
    3.6401   -1.7450   -0.2296 H   0  0  0  0  0  0  0  0  0  0  0  0
    5.1836   -1.6448    0.5870 H   0  0  0  0  0  0  0  0  0  0  0  0
    4.1628    0.2796   -1.5756 H   0  0  0  0  0  0  0  0  0  0  0  0
    5.3488   -1.0034   -1.7794 H   0  0  0  0  0  0  0  0  0  0  0  0
    6.4072    1.0615   -1.5428 H   0  0  0  0  0  0  0  0  0  0  0  0
    5.6310    1.4103   -0.1629 H   0  0  0  0  0  0  0  0  0  0  0  0
   -1.2411    1.0320   -0.0062 H   0  0  0  0  0  0  0  0  0  0  0  0
   -1.1651    0.2172   -1.5553 H   0  0  0  0  0  0  0  0  0  0  0  0
   -3.0221   -1.1745   -0.8150 H   0  0  0  0  0  0  0  0  0  0  0  0
   -2.9412   -0.9034    1.5632 H   0  0  0  0  0  0  0  0  0  0  0  0
   -3.1600    0.8353    1.3511 H   0  0  0  0  0  0  0  0  0  0  0  0
   -5.2450   -0.3488    1.9906 H   0  0  0  0  0  0  0  0  0  0  0  0
   -5.1398   -1.3681    0.5645 H   0  0  0  0  0  0  0  0  0  0  0  0
   -5.5188    0.5816   -0.9212 H   0  0  0  0  0  0  0  0  0  0  0  0
   -6.8018    0.3999    0.2659 H   0  0  0  0  0  0  0  0  0  0  0  0
   -5.4439    2.0679    1.6020 H   0  0  0  0  0  0  0  0  0  0  0  0
   -4.6817    2.3854    0.1905 H   0  0  0  0  0  0  0  0  0  0  0  0
  1  2  1  0
  2  3  1  0
  3  4  1  0
  4  5  1  0
  5  6  1  0
  6  7  1  0
  7  8  1  0
  1  9  1  0
  9 10  1  0
 10 11  1  0
 11 12  1  0
 12 13  1  0
 13 14  1  0
  1 15  1  0
  1 16  1  0
  2 17  1  0
  2 18  1  0
  3 19  1  0
  3 20  1  0
  4 21  1  0
  5 22  1  0
  5 23  1  0
  6 24  1  0
  6 25  1  0
  7 26  1  0
  7 27  1  0
  8 28  1  0
  8 29  1  0
  9 30  1  0
  9 31  1  0
 10 32  1  0
 11 33  1  0
 11 34  1  0
 12 35  1  0
 12 36  1  0
 13 37  1  0
 13 38  1  0
 14 39  1  0
 14 40  1  0
M  END
$$$$
