
     RDKit          3D

 14 13  0  0  0  0  0  0  0  0999 V2000
    0.5100   -0.6988   -0.5644 C   0  0  0  0  0  0  0  0  0  0  0  0
   -0.6912   -0.9455    0.3403 C   0  0  0  0  0  0  0  0  0  0  0  0
   -1.5991    0.2440    0.5037 C   0  0  0  0  0  0  0  0  0  0  0  0
   -2.4049    0.3965    1.4087 O   0  0  0  0  0  0  0  0  0  0  0  0
   -1.5314    1.1385   -0.4963 O   0  0  0  0  0  0  0  0  0  0  0  0
    1.4459    0.3208    0.0218 C   0  0  0  0  0  0  0  0  0  0  0  0
    1.3577    0.8669    1.1074 O   0  0  0  0  0  0  0  0  0  0  0  0
    2.4765    0.5899   -0.8016 O   0  0  0  0  0  0  0  0  0  0  0  0
    1.0666   -1.6350   -0.6813 H   0  0  0  0  0  0  0  0  0  0  0  0
    0.1906   -0.3575   -1.5547 H   0  0  0  0  0  0  0  0  0  0  0  0
   -0.3494   -1.2420    1.3389 H   0  0  0  0  0  0  0  0  0  0  0  0
   -1.2944   -1.7606   -0.0740 H   0  0  0  0  0  0  0  0  0  0  0  0
   -2.1819    1.8253   -0.2341 H   0  0  0  0  0  0  0  0  0  0  0  0
    3.0048    1.2575   -0.3145 H   0  0  0  0  0  0  0  0  0  0  0  0
  1  2  1  0
  2  3  1  0
  3  4  2  0
  3  5  1  0
  1  6  1  0
  6  7  2  0
  6  8  1  0
  1  9  1  0
  1 10  1  0
  2 11  1  0
  2 12  1  0
  5 13  1  0
  8 14  1  0
M  END
$$$$
