
     RDKit          3D

 76 79  0  0  0  0  0  0  0  0999 V2000
    2.8654   -1.7620   -2.2198 C   0  0  0  0  0  0  0  0  0  0  0  0
    3.1399   -0.9800   -0.9247 C   0  0  2  0  0  0  0  0  0  0  0  0
    4.3849   -1.6341   -0.2580 C   0  0  0  0  0  0  0  0  0  0  0  0
    5.2085   -0.8017    0.7350 C   0  0  0  0  0  0  0  0  0  0  0  0
    5.7737    0.4939    0.1432 C   0  0  0  0  0  0  0  0  0  0  0  0
    6.5885    1.3241    1.1548 C   0  0  0  0  0  0  0  0  0  0  0  0
    6.9788    2.6657    0.5278 C   0  0  0  0  0  0  0  0  0  0  0  0
    7.8450    0.5980    1.6369 C   0  0  0  0  0  0  0  0  0  0  0  0
    1.8903   -0.9544    0.0080 C   0  0  1  0  0  0  0  0  0  0  0  0
    2.0981   -0.0840    1.2797 C   0  0  0  0  0  0  0  0  0  0  0  0
    0.7339    0.4930    1.6770 C   0  0  0  0  0  0  0  0  0  0  0  0
   -0.2443   -0.2515    0.7856 C   0  0  2  0  0  0  0  0  0  0  0  0
    0.5252   -0.4252   -0.5475 C   0  0  2  0  0  0  0  0  0  0  0  0
   -0.2989   -1.4216   -1.3862 C   0  0  0  0  0  0  0  0  0  0  0  0
   -1.7438   -0.9377   -1.6047 C   0  0  0  0  0  0  0  0  0  0  0  0
   -2.4951   -0.5968   -0.2915 C   0  0  1  0  0  0  0  0  0  0  0  0
   -1.6543    0.3314    0.6263 C   0  0  1  0  0  0  0  0  0  0  0  0
   -2.3352    0.4830    1.9944 C   0  0  0  0  0  0  0  0  0  0  0  0
   -3.8113    0.6992    1.9037 C   0  0  0  0  0  0  0  0  0  0  0  0
   -4.5514    0.4898    0.7994 C   0  0  0  0  0  0  0  0  0  0  0  0
   -3.9613   -0.0462   -0.5117 C   0  0  2  0  0  0  0  0  0  0  0  0
   -4.8489   -1.2058   -1.0742 C   0  0  0  0  0  0  0  0  0  0  0  0
   -6.0815   -1.5394   -0.2257 C   0  0  0  0  0  0  0  0  0  0  0  0
   -6.8944   -0.2893    0.1048 C   0  0  1  0  0  0  0  0  0  0  0  0
   -6.0436    0.7672    0.8313 C   0  0  0  0  0  0  0  0  0  0  0  0
   -7.4003    0.2319   -1.1437 O   0  0  0  0  0  0  0  0  0  0  0  0
   -8.4608    1.0919   -1.0586 C   0  0  0  0  0  0  0  0  0  0  0  0
   -8.9530    1.4295    0.0126 O   0  0  0  0  0  0  0  0  0  0  0  0
   -9.0033    1.6383   -2.6179 Cl  0  0  0  0  0  0  0  0  0  0  0  0
   -3.9694    1.1257   -1.5244 C   0  0  0  0  0  0  0  0  0  0  0  0
    0.7234    0.9009   -1.3218 C   0  0  0  0  0  0  0  0  0  0  0  0
    3.7817   -1.8944   -2.8064 H   0  0  0  0  0  0  0  0  0  0  0  0
    2.1736   -1.2265   -2.8727 H   0  0  0  0  0  0  0  0  0  0  0  0
    2.4568   -2.7553   -2.0065 H   0  0  0  0  0  0  0  0  0  0  0  0
    3.3894    0.0429   -1.2234 H   0  0  0  0  0  0  0  0  0  0  0  0
    5.0869   -1.9449   -1.0440 H   0  0  0  0  0  0  0  0  0  0  0  0
    4.0749   -2.5617    0.2414 H   0  0  0  0  0  0  0  0  0  0  0  0
    4.6355   -0.5834    1.6382 H   0  0  0  0  0  0  0  0  0  0  0  0
    6.0398   -1.4376    1.0625 H   0  0  0  0  0  0  0  0  0  0  0  0
    6.3958    0.2553   -0.7286 H   0  0  0  0  0  0  0  0  0  0  0  0
    4.9497    1.1188   -0.2170 H   0  0  0  0  0  0  0  0  0  0  0  0
    5.9559    1.5332    2.0270 H   0  0  0  0  0  0  0  0  0  0  0  0
    6.0895    3.2212    0.2112 H   0  0  0  0  0  0  0  0  0  0  0  0
    7.5210    3.2881    1.2477 H   0  0  0  0  0  0  0  0  0  0  0  0
    7.6199    2.5233   -0.3489 H   0  0  0  0  0  0  0  0  0  0  0  0
    7.5931   -0.2978    2.2121 H   0  0  0  0  0  0  0  0  0  0  0  0
    8.4393    1.2441    2.2926 H   0  0  0  0  0  0  0  0  0  0  0  0
    8.4779    0.2979    0.7949 H   0  0  0  0  0  0  0  0  0  0  0  0
    1.7256   -1.9882    0.3492 H   0  0  0  0  0  0  0  0  0  0  0  0
    2.7956    0.7412    1.1056 H   0  0  0  0  0  0  0  0  0  0  0  0
    2.4909   -0.6997    2.0958 H   0  0  0  0  0  0  0  0  0  0  0  0
    0.7045    1.5731    1.4940 H   0  0  0  0  0  0  0  0  0  0  0  0
    0.5290    0.3336    2.7408 H   0  0  0  0  0  0  0  0  0  0  0  0
   -0.3686   -1.2506    1.2376 H   0  0  0  0  0  0  0  0  0  0  0  0
    0.1504   -1.5869   -2.3685 H   0  0  0  0  0  0  0  0  0  0  0  0
   -0.3258   -2.4004   -0.8899 H   0  0  0  0  0  0  0  0  0  0  0  0
   -2.2847   -1.7158   -2.1545 H   0  0  0  0  0  0  0  0  0  0  0  0
   -1.7123   -0.0673   -2.2662 H   0  0  0  0  0  0  0  0  0  0  0  0
   -2.5948   -1.5506    0.2523 H   0  0  0  0  0  0  0  0  0  0  0  0
   -1.5880    1.3285    0.1751 H   0  0  0  0  0  0  0  0  0  0  0  0
   -1.8888    1.3330    2.5246 H   0  0  0  0  0  0  0  0  0  0  0  0
   -2.1625   -0.4053    2.6148 H   0  0  0  0  0  0  0  0  0  0  0  0
   -4.2862    1.0593    2.8146 H   0  0  0  0  0  0  0  0  0  0  0  0
   -5.1813   -0.9645   -2.0932 H   0  0  0  0  0  0  0  0  0  0  0  0
   -4.2728   -2.1337   -1.1765 H   0  0  0  0  0  0  0  0  0  0  0  0
   -5.7692   -2.0409    0.6991 H   0  0  0  0  0  0  0  0  0  0  0  0
   -6.7035   -2.2497   -0.7843 H   0  0  0  0  0  0  0  0  0  0  0  0
   -7.7442   -0.5887    0.7320 H   0  0  0  0  0  0  0  0  0  0  0  0
   -6.3817    0.8029    1.8755 H   0  0  0  0  0  0  0  0  0  0  0  0
   -6.2191    1.7664    0.4145 H   0  0  0  0  0  0  0  0  0  0  0  0
   -4.9703    1.5565   -1.6407 H   0  0  0  0  0  0  0  0  0  0  0  0
   -3.6617    0.8039   -2.5245 H   0  0  0  0  0  0  0  0  0  0  0  0
   -3.3041    1.9376   -1.2124 H   0  0  0  0  0  0  0  0  0  0  0  0
    1.3455    1.6158   -0.7735 H   0  0  0  0  0  0  0  0  0  0  0  0
   -0.2200    1.4082   -1.5399 H   0  0  0  0  0  0  0  0  0  0  0  0
    1.2131    0.7249   -2.2844 H   0  0  0  0  0  0  0  0  0  0  0  0
  1  2  1  0
  2  3  1  0
  3  4  1  0
  4  5  1  0
  5  6  1  0
  6  7  1  0
  6  8  1  0
  2  9  1  0
  9 10  1  0
 10 11  1  0
 11 12  1  0
 12 13  1  0
 13 14  1  0
 14 15  1  0
 15 16  1  0
 16 17  1  0
 17 18  1  0
 18 19  1  0
 19 20  2  0
 20 21  1  0
 21 22  1  0
 22 23  1  0
 23 24  1  0
 24 25  1  0
 24 26  1  0
 26 27  1  0
 27 28  2  0
 27 29  1  0
 21 30  1  6
 13 31  1  6
 13  9  1  0
 17 12  1  0
 21 16  1  0
 25 20  1  0
  1 32  1  0
  1 33  1  0
  1 34  1  0
  2 35  1  6
  3 36  1  0
  3 37  1  0
  4 38  1  0
  4 39  1  0
  5 40  1  0
  5 41  1  0
  6 42  1  0
  7 43  1  0
  7 44  1  0
  7 45  1  0
  8 46  1  0
  8 47  1  0
  8 48  1  0
  9 49  1  1
 10 50  1  0
 10 51  1  0
 11 52  1  0
 11 53  1  0
 12 54  1  1
 14 55  1  0
 14 56  1  0
 15 57  1  0
 15 58  1  0
 16 59  1  1
 17 60  1  6
 18 61  1  0
 18 62  1  0
 19 63  1  0
 22 64  1  0
 22 65  1  0
 23 66  1  0
 23 67  1  0
 24 68  1  1
 25 69  1  0
 25 70  1  0
 30 71  1  0
 30 72  1  0
 30 73  1  0
 31 74  1  0
 31 75  1  0
 31 76  1  0
M  END
$$$$
