
     RDKit          3D

 48 50  0  0  0  0  0  0  0  0999 V2000
    9.9521   -1.0286    0.9599 C   0  0  0  0  0  0  0  0  0  0  0  0
    8.6714   -0.6721    0.4037 N   0  0  0  0  0  0  0  0  0  0  0  0
    7.5586   -0.6361    1.1645 C   0  0  0  0  0  0  0  0  0  0  0  0
    7.5092   -0.6831    2.3945 O   0  0  0  0  0  0  0  0  0  0  0  0
    6.2946   -0.5448    0.3597 C   0  0  0  0  0  0  0  0  0  0  0  0
    6.4388   -0.5683   -0.9943 N   0  0  0  0  0  0  0  0  0  0  0  0
    5.3219   -0.4746   -1.7124 C   0  0  0  0  0  0  0  0  0  0  0  0
    4.0486   -0.3533   -1.1837 C   0  0  0  0  0  0  0  0  0  0  0  0
    3.9279   -0.3388    0.1980 C   0  0  0  0  0  0  0  0  0  0  0  0
    5.0541   -0.4358    0.9870 C   0  0  0  0  0  0  0  0  0  0  0  0
    2.7410   -0.2382    0.8898 O   0  0  0  0  0  0  0  0  0  0  0  0
    1.5832   -0.0360    0.2110 C   0  0  0  0  0  0  0  0  0  0  0  0
    0.9431   -1.0891   -0.4492 C   0  0  0  0  0  0  0  0  0  0  0  0
   -0.2826   -0.8583   -1.0444 C   0  0  0  0  0  0  0  0  0  0  0  0
   -0.9084    0.4124   -0.9865 C   0  0  0  0  0  0  0  0  0  0  0  0
   -0.2358    1.4695   -0.3540 C   0  0  0  0  0  0  0  0  0  0  0  0
    1.0200    1.2525    0.2238 C   0  0  0  0  0  0  0  0  0  0  0  0
   -2.1911    0.5471   -1.5378 N   0  0  0  0  0  0  0  0  0  0  0  0
   -3.2300    1.1043   -0.8131 C   0  0  0  0  0  0  0  0  0  0  0  0
   -3.0827    1.6059    0.3162 O   0  0  0  0  0  0  0  0  0  0  0  0
   -4.4530    0.7945   -1.3998 N   0  0  0  0  0  0  0  0  0  0  0  0
   -5.6521    0.9463   -0.6855 C   0  0  0  0  0  0  0  0  0  0  0  0
   -6.4305   -0.1895   -0.4649 C   0  0  0  0  0  0  0  0  0  0  0  0
   -7.6152   -0.1163    0.2828 C   0  0  0  0  0  0  0  0  0  0  0  0
   -8.0639    1.1480    0.6950 C   0  0  0  0  0  0  0  0  0  0  0  0
   -7.2970    2.2975    0.4572 C   0  0  0  0  0  0  0  0  0  0  0  0
   -6.0658    2.1902   -0.1798 C   0  0  0  0  0  0  0  0  0  0  0  0
   -9.5691    1.3379    1.5187 Cl  0  0  0  0  0  0  0  0  0  0  0  0
   -8.3495   -1.3761    0.6720 C   0  0  0  0  0  0  0  0  0  0  0  0
   -7.7083   -2.5028    0.2364 F   0  0  0  0  0  0  0  0  0  0  0  0
   -8.4588   -1.5252    2.0119 F   0  0  0  0  0  0  0  0  0  0  0  0
   -9.5993   -1.4392    0.1586 F   0  0  0  0  0  0  0  0  0  0  0  0
   -0.9144   -1.8582   -1.6927 F   0  0  0  0  0  0  0  0  0  0  0  0
   10.7220   -0.6910    0.2796 H   0  0  0  0  0  0  0  0  0  0  0  0
   10.0832   -0.5804    1.9452 H   0  0  0  0  0  0  0  0  0  0  0  0
   10.0004   -2.1178    1.0233 H   0  0  0  0  0  0  0  0  0  0  0  0
    8.4870   -0.7478   -0.5966 H   0  0  0  0  0  0  0  0  0  0  0  0
    5.4678   -0.5110   -2.8066 H   0  0  0  0  0  0  0  0  0  0  0  0
    3.2108   -0.2845   -1.8564 H   0  0  0  0  0  0  0  0  0  0  0  0
    4.9719   -0.4078    2.0752 H   0  0  0  0  0  0  0  0  0  0  0  0
    1.3753   -2.1027   -0.4528 H   0  0  0  0  0  0  0  0  0  0  0  0
   -0.7101    2.4613   -0.2907 H   0  0  0  0  0  0  0  0  0  0  0  0
    1.5120    2.0686    0.7650 H   0  0  0  0  0  0  0  0  0  0  0  0
   -2.4949   -0.3370   -1.9481 H   0  0  0  0  0  0  0  0  0  0  0  0
   -4.4259   -0.0392   -1.9845 H   0  0  0  0  0  0  0  0  0  0  0  0
   -6.0633   -1.1774   -0.8028 H   0  0  0  0  0  0  0  0  0  0  0  0
   -7.6404    3.2529    0.8327 H   0  0  0  0  0  0  0  0  0  0  0  0
   -5.4528    3.0721   -0.3205 H   0  0  0  0  0  0  0  0  0  0  0  0
  1  2  1  0
  2  3  1  0
  3  4  2  0
  3  5  1  0
  5  6  2  0
  6  7  1  0
  7  8  2  0
  8  9  1  0
  9 10  2  0
  9 11  1  0
 11 12  1  0
 12 13  2  0
 13 14  1  0
 14 15  2  0
 15 16  1  0
 16 17  2  0
 15 18  1  0
 18 19  1  0
 19 20  2  0
 19 21  1  0
 21 22  1  0
 22 23  2  0
 23 24  1  0
 24 25  2  0
 25 26  1  0
 26 27  2  0
 25 28  1  0
 24 29  1  0
 29 30  1  0
 29 31  1  0
 29 32  1  0
 14 33  1  0
 10  5  1  0
 17 12  1  0
 27 22  1  0
  1 34  1  0
  1 35  1  0
  1 36  1  0
  2 37  1  0
  7 38  1  0
  8 39  1  0
 10 40  1  0
 13 41  1  0
 16 42  1  0
 17 43  1  0
 18 44  1  0
 21 45  1  0
 23 46  1  0
 26 47  1  0
 27 48  1  0
M  END
$$$$
