
     RDKit          3D

101106  0  0  0  0  0  0  0  0999 V2000
   -9.3836   -3.5032   -0.8669 C   0  0  0  0  0  0  0  0  0  0  0  0
  -10.1733   -2.3885   -0.3505 N   0  0  0  0  0  0  0  0  0  0  0  0
  -11.1438   -1.9265   -1.3371 C   0  0  0  0  0  0  0  0  0  0  0  0
   -9.3429   -1.3065    0.2029 C   0  0  0  0  0  0  0  0  0  0  0  0
   -8.4360   -0.5600   -0.7916 C   0  0  0  0  0  0  0  0  0  0  0  0
   -7.6402    0.5752   -0.1168 C   0  0  2  0  0  0  0  0  0  0  0  0
   -6.8002    1.4371   -1.0845 C   0  0  0  0  0  0  0  0  0  0  0  0
   -7.7771    2.4153   -2.2913 S   0  0  0  0  0  0  0  0  0  0  0  0
   -8.6812    3.5021   -1.2030 C   0  0  0  0  0  0  0  0  0  0  0  0
  -10.0718    3.5775   -1.3348 C   0  0  0  0  0  0  0  0  0  0  0  0
  -10.8173    4.4072   -0.4941 C   0  0  0  0  0  0  0  0  0  0  0  0
  -10.1758    5.1741    0.4767 C   0  0  0  0  0  0  0  0  0  0  0  0
   -8.7888    5.1181    0.6011 C   0  0  0  0  0  0  0  0  0  0  0  0
   -8.0422    4.2887   -0.2395 C   0  0  0  0  0  0  0  0  0  0  0  0
   -6.8361    0.1131    1.0309 N   0  0  0  0  0  0  0  0  0  0  0  0
   -5.6942   -0.6760    1.0648 C   0  0  0  0  0  0  0  0  0  0  0  0
   -5.0117   -0.9388    2.2824 C   0  0  0  0  0  0  0  0  0  0  0  0
   -3.9177   -1.8201    2.3685 C   0  0  0  0  0  0  0  0  0  0  0  0
   -3.4783   -2.4660    1.2182 C   0  0  0  0  0  0  0  0  0  0  0  0
   -4.1324   -2.2544    0.0090 C   0  0  0  0  0  0  0  0  0  0  0  0
   -5.2256   -1.3769   -0.0562 C   0  0  0  0  0  0  0  0  0  0  0  0
   -2.1580   -3.6455    1.3167 S   0  0  0  0  0  6  0  0  0  0  0  0
   -2.3046   -4.6103    0.2526 O   0  0  0  0  0  0  0  0  0  0  0  0
   -2.0689   -4.0736    2.6978 O   0  0  0  0  0  0  0  0  0  0  0  0
   -0.8010   -2.7205    1.0653 N   0  0  0  0  0  0  0  0  0  0  0  0
   -0.4067   -2.2014   -0.1737 C   0  0  0  0  0  0  0  0  0  0  0  0
   -1.0979   -2.2326   -1.1789 O   0  0  0  0  0  0  0  0  0  0  0  0
    0.9455   -1.5889   -0.1874 C   0  0  0  0  0  0  0  0  0  0  0  0
    1.4798   -0.9353    0.9242 C   0  0  0  0  0  0  0  0  0  0  0  0
    2.7843   -0.4228    0.8733 C   0  0  0  0  0  0  0  0  0  0  0  0
    3.5973   -0.5598   -0.2636 C   0  0  0  0  0  0  0  0  0  0  0  0
    3.0198   -1.1972   -1.3741 C   0  0  0  0  0  0  0  0  0  0  0  0
    1.7132   -1.7015   -1.3463 C   0  0  0  0  0  0  0  0  0  0  0  0
    4.8960   -0.0855   -0.2989 N   0  0  0  0  0  0  0  0  0  0  0  0
    5.3888    0.9115    0.6654 C   0  0  0  0  0  0  0  0  0  0  0  0
    6.7385    1.5068    0.2023 C   0  0  0  0  0  0  0  0  0  0  0  0
    7.8227    0.5200    0.0013 N   0  0  0  0  0  0  0  0  0  0  0  0
    7.2756   -0.8027   -0.3737 C   0  0  0  0  0  0  0  0  0  0  0  0
    5.9242   -0.7479   -1.1261 C   0  0  0  0  0  0  0  0  0  0  0  0
    8.7033    0.4475    1.1799 C   0  0  0  0  0  0  0  0  0  0  0  0
    9.9379   -0.4180    0.9875 C   0  0  0  0  0  0  0  0  0  0  0  0
    9.9539   -1.7030    1.5673 C   0  0  0  0  0  0  0  0  0  0  0  0
   11.0608   -2.5408    1.4329 C   0  0  0  0  0  0  0  0  0  0  0  0
   12.1723   -2.1093    0.7200 C   0  0  0  0  0  0  0  0  0  0  0  0
   12.1744   -0.8409    0.1403 C   0  0  0  0  0  0  0  0  0  0  0  0
   11.0679    0.0217    0.2597 C   0  0  0  0  0  0  0  0  0  0  0  0
   11.1447    1.3464   -0.3699 C   0  0  0  0  0  0  0  0  0  0  0  0
   10.5319    1.5896   -1.6089 C   0  0  0  0  0  0  0  0  0  0  0  0
   10.6180    2.8459   -2.2153 C   0  0  0  0  0  0  0  0  0  0  0  0
   11.3254    3.8677   -1.5874 C   0  0  0  0  0  0  0  0  0  0  0  0
   11.9449    3.6460   -0.3590 C   0  0  0  0  0  0  0  0  0  0  0  0
   11.8554    2.3892    0.2456 C   0  0  0  0  0  0  0  0  0  0  0  0
   11.4338    5.4159   -2.3291 Cl  0  0  0  0  0  0  0  0  0  0  0  0
   -5.4240   -0.2777    3.5258 N   0  0  0  0  0  4  0  0  0  0  0  0
   -5.8756    0.8767    3.4463 O   0  0  0  0  0  0  0  0  0  0  0  0
   -5.2636   -0.8995    4.5864 O   0  0  0  0  0  1  0  0  0  0  0  0
   -8.8255   -3.2410   -1.7725 H   0  0  0  0  0  0  0  0  0  0  0  0
  -10.0362   -4.3503   -1.1080 H   0  0  0  0  0  0  0  0  0  0  0  0
   -8.6737   -3.8604   -0.1125 H   0  0  0  0  0  0  0  0  0  0  0  0
  -11.8422   -2.7331   -1.5894 H   0  0  0  0  0  0  0  0  0  0  0  0
  -11.7477   -1.1072   -0.9315 H   0  0  0  0  0  0  0  0  0  0  0  0
  -10.6740   -1.5856   -2.2658 H   0  0  0  0  0  0  0  0  0  0  0  0
  -10.0071   -0.5814    0.6930 H   0  0  0  0  0  0  0  0  0  0  0  0
   -8.7341   -1.7309    1.0107 H   0  0  0  0  0  0  0  0  0  0  0  0
   -9.0612   -0.1294   -1.5820 H   0  0  0  0  0  0  0  0  0  0  0  0
   -7.7661   -1.2656   -1.2871 H   0  0  0  0  0  0  0  0  0  0  0  0
   -8.3910    1.2363    0.3354 H   0  0  0  0  0  0  0  0  0  0  0  0
   -6.1361    0.8045   -1.6809 H   0  0  0  0  0  0  0  0  0  0  0  0
   -6.1509    2.1186   -0.5237 H   0  0  0  0  0  0  0  0  0  0  0  0
  -10.5878    2.9899   -2.0913 H   0  0  0  0  0  0  0  0  0  0  0  0
  -11.8981    4.4569   -0.6005 H   0  0  0  0  0  0  0  0  0  0  0  0
  -10.7550    5.8227    1.1300 H   0  0  0  0  0  0  0  0  0  0  0  0
   -8.2871    5.7250    1.3509 H   0  0  0  0  0  0  0  0  0  0  0  0
   -6.9598    4.2752   -0.1368 H   0  0  0  0  0  0  0  0  0  0  0  0
   -6.8649    0.7976    1.7979 H   0  0  0  0  0  0  0  0  0  0  0  0
   -3.4267   -2.0061    3.3219 H   0  0  0  0  0  0  0  0  0  0  0  0
   -3.8066   -2.7713   -0.8934 H   0  0  0  0  0  0  0  0  0  0  0  0
   -5.6946   -1.2692   -1.0271 H   0  0  0  0  0  0  0  0  0  0  0  0
   -0.1567   -2.7774    1.8476 H   0  0  0  0  0  0  0  0  0  0  0  0
    0.8992   -0.7893    1.8307 H   0  0  0  0  0  0  0  0  0  0  0  0
    3.1652    0.0698    1.7642 H   0  0  0  0  0  0  0  0  0  0  0  0
    3.5786   -1.2949   -2.3020 H   0  0  0  0  0  0  0  0  0  0  0  0
    1.3112   -2.1926   -2.2306 H   0  0  0  0  0  0  0  0  0  0  0  0
    4.6675    1.7329    0.7576 H   0  0  0  0  0  0  0  0  0  0  0  0
    5.5147    0.4506    1.6530 H   0  0  0  0  0  0  0  0  0  0  0  0
    7.0434    2.3044    0.8906 H   0  0  0  0  0  0  0  0  0  0  0  0
    6.5779    2.0039   -0.7635 H   0  0  0  0  0  0  0  0  0  0  0  0
    7.1170   -1.4203    0.5208 H   0  0  0  0  0  0  0  0  0  0  0  0
    8.0068   -1.3206   -1.0046 H   0  0  0  0  0  0  0  0  0  0  0  0
    6.0353   -0.2039   -2.0712 H   0  0  0  0  0  0  0  0  0  0  0  0
    5.6430   -1.7801   -1.3657 H   0  0  0  0  0  0  0  0  0  0  0  0
    9.0519    1.4530    1.4501 H   0  0  0  0  0  0  0  0  0  0  0  0
    8.1416    0.0970    2.0579 H   0  0  0  0  0  0  0  0  0  0  0  0
    9.0950   -2.0598    2.1334 H   0  0  0  0  0  0  0  0  0  0  0  0
   11.0546   -3.5289    1.8862 H   0  0  0  0  0  0  0  0  0  0  0  0
   13.0388   -2.7566    0.6113 H   0  0  0  0  0  0  0  0  0  0  0  0
   13.0529   -0.5188   -0.4169 H   0  0  0  0  0  0  0  0  0  0  0  0
    9.9726    0.7958   -2.1022 H   0  0  0  0  0  0  0  0  0  0  0  0
   10.1334    3.0150   -3.1723 H   0  0  0  0  0  0  0  0  0  0  0  0
   12.4967    4.4417    0.1321 H   0  0  0  0  0  0  0  0  0  0  0  0
   12.3459    2.2223    1.2038 H   0  0  0  0  0  0  0  0  0  0  0  0
  1  2  1  0
  2  3  1  0
  2  4  1  0
  4  5  1  0
  5  6  1  0
  6  7  1  0
  7  8  1  0
  8  9  1  0
  9 10  2  0
 10 11  1  0
 11 12  2  0
 12 13  1  0
 13 14  2  0
  6 15  1  0
 15 16  1  0
 16 17  2  0
 17 18  1  0
 18 19  2  0
 19 20  1  0
 20 21  2  0
 19 22  1  0
 22 23  2  0
 22 24  2  0
 22 25  1  0
 25 26  1  0
 26 27  2  0
 26 28  1  0
 28 29  2  0
 29 30  1  0
 30 31  2  0
 31 32  1  0
 32 33  2  0
 31 34  1  0
 34 35  1  0
 35 36  1  0
 36 37  1  0
 37 38  1  0
 38 39  1  0
 37 40  1  0
 40 41  1  0
 41 42  2  0
 42 43  1  0
 43 44  2  0
 44 45  1  0
 45 46  2  0
 46 47  1  0
 47 48  2  0
 48 49  1  0
 49 50  2  0
 50 51  1  0
 51 52  2  0
 50 53  1  0
 17 54  1  0
 54 55  2  0
 54 56  1  0
 14  9  1  0
 21 16  1  0
 33 28  1  0
 39 34  1  0
 46 41  1  0
 52 47  1  0
  1 57  1  0
  1 58  1  0
  1 59  1  0
  3 60  1  0
  3 61  1  0
  3 62  1  0
  4 63  1  0
  4 64  1  0
  5 65  1  0
  5 66  1  0
  6 67  1  1
  7 68  1  0
  7 69  1  0
 10 70  1  0
 11 71  1  0
 12 72  1  0
 13 73  1  0
 14 74  1  0
 15 75  1  0
 18 76  1  0
 20 77  1  0
 21 78  1  0
 25 79  1  0
 29 80  1  0
 30 81  1  0
 32 82  1  0
 33 83  1  0
 35 84  1  0
 35 85  1  0
 36 86  1  0
 36 87  1  0
 38 88  1  0
 38 89  1  0
 39 90  1  0
 39 91  1  0
 40 92  1  0
 40 93  1  0
 42 94  1  0
 43 95  1  0
 44 96  1  0
 45 97  1  0
 48 98  1  0
 49 99  1  0
 51100  1  0
 52101  1  0
M  CHG  2  54   1  56  -1
M  END
$$$$
