
     RDKit          3D

 46 49  0  0  0  0  0  0  0  0999 V2000
    7.9216    0.5726   -1.4590 C   0  0  0  0  0  0  0  0  0  0  0  0
    6.5736    0.2881   -0.9099 C   0  0  0  0  0  0  0  0  0  0  0  0
    5.3372    0.8058   -1.2366 C   0  0  0  0  0  0  0  0  0  0  0  0
    4.3657    0.1869   -0.4025 C   0  0  0  0  0  0  0  0  0  0  0  0
    5.0470   -0.7048    0.4294 C   0  0  0  0  0  0  0  0  0  0  0  0
    6.3816   -0.6250    0.0984 N   0  0  0  0  0  0  0  0  0  0  0  0
    4.3983   -1.4888    1.3958 C   0  0  0  0  0  0  0  0  0  0  0  0
    3.0101   -1.3623    1.5144 C   0  0  0  0  0  0  0  0  0  0  0  0
    2.3142   -0.4918    0.6804 C   0  0  0  0  0  0  0  0  0  0  0  0
    2.9713    0.2988   -0.2669 C   0  0  0  0  0  0  0  0  0  0  0  0
    2.2765    1.1565   -1.0301 F   0  0  0  0  0  0  0  0  0  0  0  0
    0.9304   -0.3676    0.8576 O   0  0  0  0  0  0  0  0  0  0  0  0
    0.1654   -0.9470   -0.1388 C   0  0  0  0  0  0  0  0  0  0  0  0
    0.6188   -1.6840   -1.0970 N   0  0  0  0  0  0  0  0  0  0  0  0
   -0.3000   -2.1764   -1.9883 C   0  0  0  0  0  0  0  0  0  0  0  0
   -1.5855   -1.9991   -1.9633 N   0  0  0  0  0  0  0  0  0  0  0  0
   -2.0220   -1.2378   -0.9442 N   0  0  0  0  0  0  0  0  0  0  0  0
   -1.2206   -0.6766    0.0018 C   0  0  0  0  0  0  0  0  0  0  0  0
   -2.0074    0.0465    0.8842 C   0  0  0  0  0  0  0  0  0  0  0  0
   -3.3492   -0.1208    0.4348 C   0  0  0  0  0  0  0  0  0  0  0  0
   -3.3242   -0.8994   -0.7000 C   0  0  0  0  0  0  0  0  0  0  0  0
   -4.4160    0.4581    1.0327 O   0  0  0  0  0  0  0  0  0  0  0  0
   -5.7065   -0.0610    0.6954 C   0  0  0  0  0  0  0  0  0  0  0  0
   -6.4779    0.9174   -0.2039 C   0  0  1  0  0  0  0  0  0  0  0  0
   -6.5612    2.3200    0.3853 C   0  0  0  0  0  0  0  0  0  0  0  0
   -5.8729    1.0052   -1.4948 O   0  0  0  0  0  0  0  0  0  0  0  0
   -1.5590    0.8362    2.0613 C   0  0  0  0  0  0  0  0  0  0  0  0
    8.5846    0.9503   -0.6741 H   0  0  0  0  0  0  0  0  0  0  0  0
    7.8714    1.3256   -2.2520 H   0  0  0  0  0  0  0  0  0  0  0  0
    8.3644   -0.3353   -1.8808 H   0  0  0  0  0  0  0  0  0  0  0  0
    5.1419    1.5518   -1.9968 H   0  0  0  0  0  0  0  0  0  0  0  0
    7.1133   -1.1643    0.5408 H   0  0  0  0  0  0  0  0  0  0  0  0
    4.9501   -2.1709    2.0353 H   0  0  0  0  0  0  0  0  0  0  0  0
    2.4756   -1.9493    2.2562 H   0  0  0  0  0  0  0  0  0  0  0  0
    0.1139   -2.7898   -2.8070 H   0  0  0  0  0  0  0  0  0  0  0  0
   -4.0976   -1.2440   -1.3714 H   0  0  0  0  0  0  0  0  0  0  0  0
   -6.2498   -0.1703    1.6415 H   0  0  0  0  0  0  0  0  0  0  0  0
   -5.6649   -1.0609    0.2493 H   0  0  0  0  0  0  0  0  0  0  0  0
   -7.4916    0.5309   -0.3543 H   0  0  0  0  0  0  0  0  0  0  0  0
   -7.1534    2.9698   -0.2683 H   0  0  0  0  0  0  0  0  0  0  0  0
   -7.0254    2.3075    1.3760 H   0  0  0  0  0  0  0  0  0  0  0  0
   -5.5709    2.7811    0.4648 H   0  0  0  0  0  0  0  0  0  0  0  0
   -4.9507    1.2897   -1.3533 H   0  0  0  0  0  0  0  0  0  0  0  0
   -2.4008    1.3183    2.5678 H   0  0  0  0  0  0  0  0  0  0  0  0
   -1.0580    0.1887    2.7881 H   0  0  0  0  0  0  0  0  0  0  0  0
   -0.8614    1.6214    1.7526 H   0  0  0  0  0  0  0  0  0  0  0  0
  1  2  1  0
  2  3  2  0
  3  4  1  0
  4  5  2  0
  5  6  1  0
  5  7  1  0
  7  8  2  0
  8  9  1  0
  9 10  2  0
 10 11  1  0
  9 12  1  0
 12 13  1  0
 13 14  2  0
 14 15  1  0
 15 16  2  0
 16 17  1  0
 17 18  1  0
 18 19  2  0
 19 20  1  0
 20 21  2  0
 20 22  1  0
 22 23  1  0
 23 24  1  0
 24 25  1  0
 24 26  1  0
 19 27  1  0
  6  2  1  0
 10  4  1  0
 18 13  1  0
 21 17  1  0
  1 28  1  0
  1 29  1  0
  1 30  1  0
  3 31  1  0
  6 32  1  0
  7 33  1  0
  8 34  1  0
 15 35  1  0
 21 36  1  0
 23 37  1  0
 23 38  1  0
 24 39  1  6
 25 40  1  0
 25 41  1  0
 25 42  1  0
 26 43  1  0
 27 44  1  0
 27 45  1  0
 27 46  1  0
M  END
$$$$
