
     RDKit          3D

 41 43  0  0  0  0  0  0  0  0999 V2000
    1.7753   -1.8983   -0.3854 C   0  0  0  0  0  0  0  0  0  0  0  0
    1.7618   -0.3824   -0.4326 C   0  0  2  0  0  0  0  0  0  0  0  0
    2.0919    0.3000    0.9134 C   0  0  2  0  0  0  0  0  0  0  0  0
    1.4157    1.6582    0.9284 C   0  0  0  0  0  0  0  0  0  0  0  0
    1.5780    2.5551    1.7327 O   0  0  0  0  0  0  0  0  0  0  0  0
    0.4916    1.6690   -0.0951 N   0  0  0  0  0  0  0  0  0  0  0  0
    0.5550    0.4618   -0.9634 C   0  0  1  0  0  0  0  0  0  0  0  0
    1.5062    0.6527   -2.1879 C   0  0  0  0  0  0  0  0  0  0  0  0
    1.4665    1.1649   -3.2852 O   0  0  0  0  0  0  0  0  0  0  0  0
    2.5712    0.0802   -1.5580 O   0  0  0  0  0  0  0  0  0  0  0  0
   -0.8222   -0.1237   -1.2926 C   0  0  2  0  0  0  0  0  0  0  0  0
   -1.6581   -0.5194   -0.0274 C   0  0  1  0  0  0  0  0  0  0  0  0
   -2.2382    0.7332    0.6796 C   0  0  0  0  0  0  0  0  0  0  0  0
   -3.4525    0.4377    1.5563 C   0  0  0  0  0  0  0  0  0  0  0  0
   -4.5652   -0.2248    0.7529 C   0  0  0  0  0  0  0  0  0  0  0  0
   -4.0448   -1.3804   -0.0431 C   0  0  0  0  0  0  0  0  0  0  0  0
   -2.7512   -1.5248   -0.3613 C   0  0  0  0  0  0  0  0  0  0  0  0
   -0.6172   -1.2741   -2.1240 O   0  0  0  0  0  0  0  0  0  0  0  0
    3.5590    0.2986    1.3484 C   0  0  0  0  0  0  0  0  0  0  0  0
    4.6266    0.8535    0.4063 C   0  0  0  0  0  0  0  0  0  0  0  0
    4.3592    2.5413   -0.0661 Cl  0  0  0  0  0  0  0  0  0  0  0  0
    2.7564   -2.2670   -0.0644 H   0  0  0  0  0  0  0  0  0  0  0  0
    1.5822   -2.3351   -1.3694 H   0  0  0  0  0  0  0  0  0  0  0  0
    1.0242   -2.2849    0.3101 H   0  0  0  0  0  0  0  0  0  0  0  0
    1.5460   -0.2550    1.6946 H   0  0  0  0  0  0  0  0  0  0  0  0
    0.0547    2.5539   -0.3277 H   0  0  0  0  0  0  0  0  0  0  0  0
   -1.3866    0.6001   -1.8939 H   0  0  0  0  0  0  0  0  0  0  0  0
   -0.9952   -1.0300    0.6834 H   0  0  0  0  0  0  0  0  0  0  0  0
   -2.5224    1.4897   -0.0638 H   0  0  0  0  0  0  0  0  0  0  0  0
   -1.4787    1.1862    1.3242 H   0  0  0  0  0  0  0  0  0  0  0  0
   -3.1532   -0.2144    2.3862 H   0  0  0  0  0  0  0  0  0  0  0  0
   -3.8242    1.3671    2.0035 H   0  0  0  0  0  0  0  0  0  0  0  0
   -5.3446   -0.5725    1.4403 H   0  0  0  0  0  0  0  0  0  0  0  0
   -5.0299    0.4977    0.0723 H   0  0  0  0  0  0  0  0  0  0  0  0
   -4.7623   -2.1456   -0.3340 H   0  0  0  0  0  0  0  0  0  0  0  0
   -2.4478   -2.4388   -0.8676 H   0  0  0  0  0  0  0  0  0  0  0  0
   -1.4331   -1.4023   -2.6455 H   0  0  0  0  0  0  0  0  0  0  0  0
    3.6366    0.8393    2.3024 H   0  0  0  0  0  0  0  0  0  0  0  0
    3.8446   -0.7368    1.5742 H   0  0  0  0  0  0  0  0  0  0  0  0
    5.5985    0.8180    0.9109 H   0  0  0  0  0  0  0  0  0  0  0  0
    4.7261    0.2521   -0.5012 H   0  0  0  0  0  0  0  0  0  0  0  0
  2  1  1  1
  2  3  1  0
  3  4  1  0
  4  5  2  0
  4  6  1  0
  7  6  1  1
  7  8  1  0
  8  9  2  0
  8 10  1  0
  7 11  1  0
 11 12  1  0
 12 13  1  0
 13 14  1  0
 14 15  1  0
 15 16  1  0
 16 17  2  0
 11 18  1  0
  3 19  1  0
 19 20  1  0
 20 21  1  0
  7  2  1  0
 10  2  1  0
 17 12  1  0
  1 22  1  0
  1 23  1  0
  1 24  1  0
  3 25  1  1
  6 26  1  0
 11 27  1  6
 12 28  1  1
 13 29  1  0
 13 30  1  0
 14 31  1  0
 14 32  1  0
 15 33  1  0
 15 34  1  0
 16 35  1  0
 17 36  1  0
 18 37  1  0
 19 38  1  0
 19 39  1  0
 20 40  1  0
 20 41  1  0
M  END
$$$$
