
     RDKit          3D

 27 27  0  0  0  0  0  0  0  0999 V2000
    1.8171   -1.1151    1.1673 C   0  0  0  0  0  0  0  0  0  0  0  0
    3.1645   -1.0451    1.5296 C   0  0  0  0  0  0  0  0  0  0  0  0
    4.0384   -0.2052    0.8294 C   0  0  0  0  0  0  0  0  0  0  0  0
    3.5435    0.5586   -0.2333 C   0  0  0  0  0  0  0  0  0  0  0  0
    2.1905    0.4856   -0.5938 C   0  0  0  0  0  0  0  0  0  0  0  0
    1.3231   -0.3521    0.1068 C   0  0  0  0  0  0  0  0  0  0  0  0
   -0.0107   -0.5179   -0.1390 O   0  0  0  0  0  0  0  0  0  0  0  0
   -0.5834    0.2468   -1.2003 C   0  0  0  0  0  0  0  0  0  0  0  0
   -2.0723   -0.0837   -1.2946 C   0  0  0  0  0  0  0  0  0  0  0  0
   -2.8364    0.3355   -0.0384 C   0  0  0  0  0  0  0  0  0  0  0  0
   -4.3208    0.0161   -0.1539 C   0  0  0  0  0  0  0  0  0  0  0  0
   -4.9989    0.4541    1.0154 O   0  0  0  0  0  0  0  0  0  0  0  0
    4.5594    1.6190   -1.1476 Cl  0  0  0  0  0  0  0  0  0  0  0  0
    5.4152   -0.1557    1.2250 C   0  0  0  0  0  0  0  0  0  0  0  0
    6.5235   -0.1384    1.5695 N   0  0  0  0  0  0  0  0  0  0  0  0
    1.1448   -1.7712    1.7173 H   0  0  0  0  0  0  0  0  0  0  0  0
    3.5238   -1.6505    2.3605 H   0  0  0  0  0  0  0  0  0  0  0  0
    1.8420    1.0917   -1.4239 H   0  0  0  0  0  0  0  0  0  0  0  0
   -0.1049   -0.0205   -2.1500 H   0  0  0  0  0  0  0  0  0  0  0  0
   -0.4568    1.3194   -1.0104 H   0  0  0  0  0  0  0  0  0  0  0  0
   -2.4963    0.4212   -2.1702 H   0  0  0  0  0  0  0  0  0  0  0  0
   -2.1945   -1.1639   -1.4407 H   0  0  0  0  0  0  0  0  0  0  0  0
   -2.7094    1.4104    0.1409 H   0  0  0  0  0  0  0  0  0  0  0  0
   -2.4280   -0.1662    0.8474 H   0  0  0  0  0  0  0  0  0  0  0  0
   -4.7645    0.5301   -1.0122 H   0  0  0  0  0  0  0  0  0  0  0  0
   -4.4900   -1.0590   -0.2724 H   0  0  0  0  0  0  0  0  0  0  0  0
   -4.6186   -0.0251    1.7716 H   0  0  0  0  0  0  0  0  0  0  0  0
  1  2  2  0
  2  3  1  0
  3  4  2  0
  4  5  1  0
  5  6  2  0
  6  7  1  0
  7  8  1  0
  8  9  1  0
  9 10  1  0
 10 11  1  0
 11 12  1  0
  4 13  1  0
  3 14  1  0
 14 15  3  0
  6  1  1  0
  1 16  1  0
  2 17  1  0
  5 18  1  0
  8 19  1  0
  8 20  1  0
  9 21  1  0
  9 22  1  0
 10 23  1  0
 10 24  1  0
 11 25  1  0
 11 26  1  0
 12 27  1  0
M  END
$$$$
