
     RDKit          3D

 47 50  0  0  0  0  0  0  0  0999 V2000
    2.2456   -0.7457   -1.8387 C   0  0  0  0  0  0  0  0  0  0  0  0
    1.5646    0.2309   -0.8919 C   0  0  0  0  0  0  0  0  0  0  0  0
    1.8235   -0.0717    0.5001 N   0  0  0  0  0  0  0  0  0  0  0  0
    1.0872   -0.9704    1.2709 C   0  0  0  0  0  0  0  0  0  0  0  0
    1.6110   -0.7933    2.5546 C   0  0  0  0  0  0  0  0  0  0  0  0
    1.1234   -1.5449    3.6268 C   0  0  0  0  0  0  0  0  0  0  0  0
    0.1376   -2.4475    3.4412 N   0  0  0  0  0  0  0  0  0  0  0  0
   -0.3707   -2.5808    2.1960 C   0  0  0  0  0  0  0  0  0  0  0  0
    0.0354   -1.8896    1.0390 C   0  0  0  0  0  0  0  0  0  0  0  0
   -0.6808   -2.2209   -0.2480 C   0  0  0  0  0  0  0  0  0  0  0  0
   -2.1181   -1.9498   -0.1886 N   0  0  0  0  0  0  0  0  0  0  0  0
   -2.4587   -0.5220   -0.2988 C   0  0  0  0  0  0  0  0  0  0  0  0
   -3.8159   -0.2814    0.3885 C   0  0  0  0  0  0  0  0  0  0  0  0
   -4.5547    0.9393   -0.1698 C   0  0  0  0  0  0  0  0  0  0  0  0
   -3.6280    1.9437   -0.6757 N   0  0  0  0  0  0  0  0  0  0  0  0
   -2.8493    1.4541   -1.8127 C   0  0  0  0  0  0  0  0  0  0  0  0
   -2.5355   -0.0464   -1.7535 C   0  0  0  0  0  0  0  0  0  0  0  0
    2.5834    0.1631    2.5675 N   0  0  0  0  0  0  0  0  0  0  0  0
    2.7210    0.5891    1.3263 C   0  0  0  0  0  0  0  0  0  0  0  0
    3.7789    1.7340    1.0212 C   0  0  0  0  0  0  0  0  0  0  0  0
    4.3201    2.3985    2.0527 N   0  0  0  0  0  0  0  0  0  0  0  0
    5.1019    3.3909    1.4932 O   0  0  0  0  0  0  0  0  0  0  0  0
    5.0998    3.3066    0.1113 N   0  0  0  0  0  0  0  0  0  0  0  0
    4.3270    2.2610   -0.1756 C   0  0  0  0  0  0  0  0  0  0  0  0
    4.2125    1.7945   -1.4443 N   0  0  0  0  0  0  0  0  0  0  0  0
    1.8440   -1.7578   -1.7366 H   0  0  0  0  0  0  0  0  0  0  0  0
    3.3177   -0.8253   -1.6423 H   0  0  0  0  0  0  0  0  0  0  0  0
    2.1026   -0.4300   -2.8765 H   0  0  0  0  0  0  0  0  0  0  0  0
    1.8614    1.2615   -1.0878 H   0  0  0  0  0  0  0  0  0  0  0  0
    0.4825    0.2330   -1.0414 H   0  0  0  0  0  0  0  0  0  0  0  0
    1.5084   -1.4321    4.6325 H   0  0  0  0  0  0  0  0  0  0  0  0
   -1.1814   -3.3070    2.1338 H   0  0  0  0  0  0  0  0  0  0  0  0
   -0.5476   -3.2976   -0.4173 H   0  0  0  0  0  0  0  0  0  0  0  0
   -0.2406   -1.7435   -1.1199 H   0  0  0  0  0  0  0  0  0  0  0  0
   -2.5937   -2.4683   -0.9256 H   0  0  0  0  0  0  0  0  0  0  0  0
   -1.7141    0.0833    0.2348 H   0  0  0  0  0  0  0  0  0  0  0  0
   -3.6452   -0.1558    1.4658 H   0  0  0  0  0  0  0  0  0  0  0  0
   -4.4747   -1.1532    0.2802 H   0  0  0  0  0  0  0  0  0  0  0  0
   -5.1730    1.3758    0.6226 H   0  0  0  0  0  0  0  0  0  0  0  0
   -5.2441    0.6333   -0.9669 H   0  0  0  0  0  0  0  0  0  0  0  0
   -4.1311    2.7913   -0.9376 H   0  0  0  0  0  0  0  0  0  0  0  0
   -3.3771    1.6695   -2.7493 H   0  0  0  0  0  0  0  0  0  0  0  0
   -1.9111    2.0196   -1.8434 H   0  0  0  0  0  0  0  0  0  0  0  0
   -1.6000   -0.2388   -2.2901 H   0  0  0  0  0  0  0  0  0  0  0  0
   -3.3219   -0.6022   -2.2820 H   0  0  0  0  0  0  0  0  0  0  0  0
    4.5341    0.8375   -1.5627 H   0  0  0  0  0  0  0  0  0  0  0  0
    4.7438    2.3658   -2.1018 H   0  0  0  0  0  0  0  0  0  0  0  0
  1  2  1  0
  2  3  1  0
  3  4  1  0
  4  5  2  0
  5  6  1  0
  6  7  2  0
  7  8  1  0
  8  9  2  0
  9 10  1  0
 10 11  1  0
 11 12  1  0
 12 13  1  0
 13 14  1  0
 14 15  1  0
 15 16  1  0
 16 17  1  0
  5 18  1  0
 18 19  2  0
 19 20  1  0
 20 21  2  0
 21 22  1  0
 22 23  1  0
 23 24  2  0
 24 25  1  0
 19  3  1  0
  9  4  1  0
 17 12  1  0
 24 20  1  0
  1 26  1  0
  1 27  1  0
  1 28  1  0
  2 29  1  0
  2 30  1  0
  6 31  1  0
  8 32  1  0
 10 33  1  0
 10 34  1  0
 11 35  1  0
 12 36  1  0
 13 37  1  0
 13 38  1  0
 14 39  1  0
 14 40  1  0
 15 41  1  0
 16 42  1  0
 16 43  1  0
 17 44  1  0
 17 45  1  0
 25 46  1  0
 25 47  1  0
M  END
$$$$
