
     RDKit          3D

 30 30  0  0  0  0  0  0  0  0999 V2000
   -4.3800   -0.1110    0.1997 C   0  0  0  0  0  0  0  0  0  0  0  0
   -3.0612   -0.2609   -0.5439 C   0  0  0  0  0  0  0  0  0  0  0  0
   -1.8331   -0.4068    0.3844 C   0  0  0  0  0  0  0  0  0  0  0  0
   -1.9359   -1.6356    1.2841 C   0  0  0  0  0  0  0  0  0  0  0  0
   -0.6956   -0.5563   -0.4893 O   0  0  0  0  0  0  0  0  0  0  0  0
    0.5319   -0.1230   -0.0791 C   0  0  0  0  0  0  0  0  0  0  0  0
    1.5296   -0.2181   -1.0548 C   0  0  0  0  0  0  0  0  0  0  0  0
    2.8539    0.1835   -0.7958 C   0  0  0  0  0  0  0  0  0  0  0  0
    3.1703    0.6868    0.4760 C   0  0  0  0  0  0  0  0  0  0  0  0
    2.1712    0.7768    1.4548 C   0  0  0  0  0  0  0  0  0  0  0  0
    0.8602    0.3726    1.1791 C   0  0  0  0  0  0  0  0  0  0  0  0
    4.5010    1.1134    0.8098 C   0  0  0  0  0  0  0  0  0  0  0  0
    5.5723    1.4590    1.0883 N   0  0  0  0  0  0  0  0  0  0  0  0
    3.9047    0.0685   -1.8714 C   0  0  0  0  0  0  0  0  0  0  0  0
    4.4591    1.2690   -2.1871 F   0  0  0  0  0  0  0  0  0  0  0  0
    4.9298   -0.7487   -1.5112 F   0  0  0  0  0  0  0  0  0  0  0  0
    3.4250   -0.4355   -3.0427 F   0  0  0  0  0  0  0  0  0  0  0  0
   -2.8924    0.9116   -1.3529 O   0  0  0  0  0  0  0  0  0  0  0  0
   -4.6421   -1.0176    0.7519 H   0  0  0  0  0  0  0  0  0  0  0  0
   -4.3399    0.7299    0.9007 H   0  0  0  0  0  0  0  0  0  0  0  0
   -5.1917    0.1061   -0.5035 H   0  0  0  0  0  0  0  0  0  0  0  0
   -3.1195   -1.1108   -1.2341 H   0  0  0  0  0  0  0  0  0  0  0  0
   -1.7501    0.5154    0.9712 H   0  0  0  0  0  0  0  0  0  0  0  0
   -2.7529   -1.5411    2.0048 H   0  0  0  0  0  0  0  0  0  0  0  0
   -2.0961   -2.5409    0.6880 H   0  0  0  0  0  0  0  0  0  0  0  0
   -1.0102   -1.7952    1.8458 H   0  0  0  0  0  0  0  0  0  0  0  0
    1.2654   -0.6147   -2.0360 H   0  0  0  0  0  0  0  0  0  0  0  0
    2.4071    1.1622    2.4468 H   0  0  0  0  0  0  0  0  0  0  0  0
    0.1287    0.4531    1.9768 H   0  0  0  0  0  0  0  0  0  0  0  0
   -2.0094    0.8319   -1.7606 H   0  0  0  0  0  0  0  0  0  0  0  0
  1  2  1  0
  2  3  1  0
  3  4  1  0
  3  5  1  0
  5  6  1  0
  6  7  2  0
  7  8  1  0
  8  9  2  0
  9 10  1  0
 10 11  2  0
  9 12  1  0
 12 13  3  0
  8 14  1  0
 14 15  1  0
 14 16  1  0
 14 17  1  0
  2 18  1  0
 11  6  1  0
  1 19  1  0
  1 20  1  0
  1 21  1  0
  2 22  1  0
  3 23  1  0
  4 24  1  0
  4 25  1  0
  4 26  1  0
  7 27  1  0
 10 28  1  0
 11 29  1  0
 18 30  1  0
M  END
$$$$
