
     RDKit          3D

 52 55  0  0  0  0  0  0  0  0999 V2000
    5.4357   -1.7107    0.9692 C   0  0  0  0  0  0  0  0  0  0  0  0
    6.7858   -2.0687    0.9585 C   0  0  0  0  0  0  0  0  0  0  0  0
    7.7125   -1.1899    0.4203 C   0  0  0  0  0  0  0  0  0  0  0  0
    7.3101    0.0315   -0.1129 C   0  0  0  0  0  0  0  0  0  0  0  0
    5.9670    0.3971   -0.1057 C   0  0  0  0  0  0  0  0  0  0  0  0
    5.0121   -0.4729    0.4484 C   0  0  0  0  0  0  0  0  0  0  0  0
    3.5781   -0.1282    0.4649 C   0  0  0  0  0  0  0  0  0  0  0  0
    3.1493    1.0746    0.8736 C   0  0  0  0  0  0  0  0  0  0  0  0
    1.7063    1.3528    0.8717 C   0  0  0  0  0  0  0  0  0  0  0  0
    1.2649    2.4372    1.2353 O   0  0  0  0  0  0  0  0  0  0  0  0
    0.8140    0.2789    0.4132 C   0  0  0  0  0  0  0  0  0  0  0  0
    1.3896   -0.9286    0.0299 C   0  0  0  0  0  0  0  0  0  0  0  0
    2.7432   -1.1549    0.0531 O   0  0  0  0  0  0  0  0  0  0  0  0
    0.5834   -1.9849   -0.3876 C   0  0  0  0  0  0  0  0  0  0  0  0
   -0.8014   -1.8161   -0.4340 C   0  0  0  0  0  0  0  0  0  0  0  0
   -1.4109   -0.5983   -0.0874 C   0  0  0  0  0  0  0  0  0  0  0  0
   -0.5789    0.4427    0.3665 C   0  0  0  0  0  0  0  0  0  0  0  0
   -1.1699    1.6086    0.7863 O   0  0  0  0  0  0  0  0  0  0  0  0
   -2.9235   -0.4379   -0.1844 C   0  0  1  0  0  0  0  0  0  0  0  0
   -3.5706   -0.4121    1.2215 C   0  0  1  0  0  0  0  0  0  0  0  0
   -5.0513   -0.0384    1.1099 C   0  0  2  0  0  0  0  0  0  0  0  0
   -5.2394    1.2297    0.2821 C   0  0  1  0  0  0  0  0  0  0  0  0
   -4.5931    1.0248   -1.0953 C   0  0  2  0  0  0  0  0  0  0  0  0
   -3.1978    0.7451   -0.9511 O   0  0  0  0  0  0  0  0  0  0  0  0
   -4.7620    2.2721   -1.9749 C   0  0  0  0  0  0  0  0  0  0  0  0
   -6.1237    2.4965   -2.3293 O   0  0  0  0  0  0  0  0  0  0  0  0
   -6.6396    1.5177    0.1676 O   0  0  0  0  0  0  0  0  0  0  0  0
   -5.6163    0.1641    2.4166 O   0  0  0  0  0  0  0  0  0  0  0  0
   -3.5148   -1.6853    1.8940 O   0  0  0  0  0  0  0  0  0  0  0  0
   -1.5946   -2.8716   -0.7870 O   0  0  0  0  0  0  0  0  0  0  0  0
    8.2779    0.8393   -0.6433 O   0  0  0  0  0  0  0  0  0  0  0  0
    9.0319   -1.5388    0.4107 O   0  0  0  0  0  0  0  0  0  0  0  0
    4.7153   -2.4030    1.3989 H   0  0  0  0  0  0  0  0  0  0  0  0
    7.1106   -3.0217    1.3658 H   0  0  0  0  0  0  0  0  0  0  0  0
    5.6586    1.3441   -0.5371 H   0  0  0  0  0  0  0  0  0  0  0  0
    3.7998    1.8671    1.2210 H   0  0  0  0  0  0  0  0  0  0  0  0
    1.0451   -2.9297   -0.6594 H   0  0  0  0  0  0  0  0  0  0  0  0
   -0.4688    2.2538    1.0382 H   0  0  0  0  0  0  0  0  0  0  0  0
   -3.3426   -1.2799   -0.7492 H   0  0  0  0  0  0  0  0  0  0  0  0
   -3.0765    0.3081    1.8825 H   0  0  0  0  0  0  0  0  0  0  0  0
   -5.6231   -0.8663    0.6716 H   0  0  0  0  0  0  0  0  0  0  0  0
   -4.7771    2.0779    0.8017 H   0  0  0  0  0  0  0  0  0  0  0  0
   -5.0814    0.1871   -1.6107 H   0  0  0  0  0  0  0  0  0  0  0  0
   -4.3781    3.1644   -1.4667 H   0  0  0  0  0  0  0  0  0  0  0  0
   -4.1847    2.1639   -2.8997 H   0  0  0  0  0  0  0  0  0  0  0  0
   -6.6514    2.3583   -1.5126 H   0  0  0  0  0  0  0  0  0  0  0  0
   -6.9881    1.4089    1.0788 H   0  0  0  0  0  0  0  0  0  0  0  0
   -5.2832   -0.5901    2.9470 H   0  0  0  0  0  0  0  0  0  0  0  0
   -2.7410   -2.1703    1.5489 H   0  0  0  0  0  0  0  0  0  0  0  0
   -1.0428   -3.5857   -1.1531 H   0  0  0  0  0  0  0  0  0  0  0  0
    7.8497    1.6194   -1.0352 H   0  0  0  0  0  0  0  0  0  0  0  0
    9.4858   -0.7818   -0.0103 H   0  0  0  0  0  0  0  0  0  0  0  0
  1  2  2  0
  2  3  1  0
  3  4  2  0
  4  5  1  0
  5  6  2  0
  6  7  1  0
  7  8  2  0
  8  9  1  0
  9 10  2  0
  9 11  1  0
 11 12  2  0
 12 13  1  0
 12 14  1  0
 14 15  2  0
 15 16  1  0
 16 17  2  0
 17 18  1  0
 16 19  1  0
 19 20  1  0
 20 21  1  0
 21 22  1  0
 22 23  1  0
 23 24  1  0
 23 25  1  0
 25 26  1  0
 22 27  1  0
 21 28  1  0
 20 29  1  0
 15 30  1  0
  4 31  1  0
  3 32  1  0
  6  1  1  0
 13  7  1  0
 17 11  1  0
 24 19  1  0
  1 33  1  0
  2 34  1  0
  5 35  1  0
  8 36  1  0
 14 37  1  0
 18 38  1  0
 19 39  1  6
 20 40  1  1
 21 41  1  6
 22 42  1  1
 23 43  1  6
 25 44  1  0
 25 45  1  0
 26 46  1  0
 27 47  1  0
 28 48  1  0
 29 49  1  0
 30 50  1  0
 31 51  1  0
 32 52  1  0
M  END
$$$$
