
     RDKit          3D

 46 49  0  0  0  0  0  0  0  0999 V2000
   -6.8507    1.2842    2.0320 C   0  0  0  0  0  0  0  0  0  0  0  0
   -6.2047    0.9189    0.7287 C   0  0  0  0  0  0  0  0  0  0  0  0
   -5.0514    0.1157    0.6958 C   0  0  0  0  0  0  0  0  0  0  0  0
   -4.5519   -0.3130   -0.5297 C   0  0  0  0  0  0  0  0  0  0  0  0
   -5.1749    0.0646   -1.7145 C   0  0  0  0  0  0  0  0  0  0  0  0
   -6.2783    0.9041   -1.6997 C   0  0  0  0  0  0  0  0  0  0  0  0
   -6.8034    1.3201   -0.4790 C   0  0  0  0  0  0  0  0  0  0  0  0
   -4.6954   -0.3681   -2.8864 F   0  0  0  0  0  0  0  0  0  0  0  0
   -3.4383   -1.1799   -0.6238 N   0  0  0  0  0  0  0  0  0  0  0  0
   -2.1718   -0.7069   -0.2854 C   0  0  0  0  0  0  0  0  0  0  0  0
   -1.9129    0.4372    0.1029 O   0  0  0  0  0  0  0  0  0  0  0  0
   -1.2395   -1.7241   -0.5115 N   0  0  0  0  0  0  0  0  0  0  0  0
    0.1152   -1.4828   -0.1967 C   0  0  0  0  0  0  0  0  0  0  0  0
    0.5330   -1.4615    1.1304 C   0  0  0  0  0  0  0  0  0  0  0  0
    1.8881   -1.1954    1.4055 C   0  0  0  0  0  0  0  0  0  0  0  0
    2.8091   -0.9717    0.3789 C   0  0  0  0  0  0  0  0  0  0  0  0
    2.3641   -1.0842   -0.9546 C   0  0  0  0  0  0  0  0  0  0  0  0
    1.0014   -1.3165   -1.2439 C   0  0  0  0  0  0  0  0  0  0  0  0
    4.2073   -0.6373    0.6772 C   0  0  0  0  0  0  0  0  0  0  0  0
    4.7606    0.6133    0.2821 C   0  0  0  0  0  0  0  0  0  0  0  0
    6.1295    0.8145    0.4885 C   0  0  0  0  0  0  0  0  0  0  0  0
    6.9724   -0.0988    1.1179 C   0  0  0  0  0  0  0  0  0  0  0  0
    6.3993   -1.2927    1.5397 C   0  0  0  0  0  0  0  0  0  0  0  0
    5.0418   -1.5621    1.3372 C   0  0  0  0  0  0  0  0  0  0  0  0
    6.4009    2.0573   -0.0489 N   0  0  0  0  0  0  0  0  0  0  0  0
    5.3395    2.6862   -0.5707 N   0  0  0  0  0  0  0  0  0  0  0  0
    4.3261    1.8457   -0.3282 C   0  0  0  0  0  0  0  0  0  0  0  0
    3.0653    2.1737   -0.6300 N   0  0  0  0  0  0  0  0  0  0  0  0
   -7.2406    2.3167    2.0108 H   0  0  0  0  0  0  0  0  0  0  0  0
   -7.6925    0.5980    2.2289 H   0  0  0  0  0  0  0  0  0  0  0  0
   -6.1500    1.2142    2.8780 H   0  0  0  0  0  0  0  0  0  0  0  0
   -4.5854   -0.2079    1.6262 H   0  0  0  0  0  0  0  0  0  0  0  0
   -6.7077    1.2369   -2.6462 H   0  0  0  0  0  0  0  0  0  0  0  0
   -7.6784    1.9779   -0.4665 H   0  0  0  0  0  0  0  0  0  0  0  0
   -3.3948   -1.6845   -1.5105 H   0  0  0  0  0  0  0  0  0  0  0  0
   -1.5966   -2.5920   -0.1097 H   0  0  0  0  0  0  0  0  0  0  0  0
   -0.1611   -1.6062    1.9421 H   0  0  0  0  0  0  0  0  0  0  0  0
    2.1947   -1.1267    2.4460 H   0  0  0  0  0  0  0  0  0  0  0  0
    3.0597   -0.9419   -1.7824 H   0  0  0  0  0  0  0  0  0  0  0  0
    0.6743   -1.3678   -2.2720 H   0  0  0  0  0  0  0  0  0  0  0  0
    8.0285    0.0990    1.2816 H   0  0  0  0  0  0  0  0  0  0  0  0
    7.0163   -2.0303    2.0486 H   0  0  0  0  0  0  0  0  0  0  0  0
    4.6485   -2.5104    1.6728 H   0  0  0  0  0  0  0  0  0  0  0  0
    7.2939    2.5384   -0.0869 H   0  0  0  0  0  0  0  0  0  0  0  0
    2.3473    1.4569   -0.6014 H   0  0  0  0  0  0  0  0  0  0  0  0
    2.9636    2.7893   -1.4505 H   0  0  0  0  0  0  0  0  0  0  0  0
  1  2  1  0
  2  3  2  0
  3  4  1  0
  4  5  2  0
  5  6  1  0
  6  7  2  0
  5  8  1  0
  4  9  1  0
  9 10  1  0
 10 11  2  0
 10 12  1  0
 12 13  1  0
 13 14  2  0
 14 15  1  0
 15 16  2  0
 16 17  1  0
 17 18  2  0
 16 19  1  0
 19 20  2  0
 20 21  1  0
 21 22  2  0
 22 23  1  0
 23 24  2  0
 21 25  1  0
 25 26  1  0
 26 27  2  0
 27 28  1  0
  7  2  1  0
 18 13  1  0
 24 19  1  0
 27 20  1  0
  1 29  1  0
  1 30  1  0
  1 31  1  0
  3 32  1  0
  6 33  1  0
  7 34  1  0
  9 35  1  0
 12 36  1  0
 14 37  1  0
 15 38  1  0
 17 39  1  0
 18 40  1  0
 22 41  1  0
 23 42  1  0
 24 43  1  0
 25 44  1  0
 28 45  1  0
 28 46  1  0
M  END
$$$$
