
     RDKit          3D

 33 36  0  0  0  0  0  0  0  0999 V2000
   -4.7757   -0.4212    0.4258 C   0  0  0  0  0  0  0  0  0  0  0  0
   -3.6638    0.3502   -0.2422 C   0  0  0  0  0  0  0  0  0  0  0  0
   -2.2898    0.0507   -0.0187 C   0  0  0  0  0  0  0  0  0  0  0  0
   -1.9123   -0.9948    0.8456 C   0  0  0  0  0  0  0  0  0  0  0  0
   -0.5805   -1.3092    1.0925 C   0  0  0  0  0  0  0  0  0  0  0  0
    0.4289   -0.5809    0.4758 C   0  0  0  0  0  0  0  0  0  0  0  0
    0.1092    0.4802   -0.4065 C   0  0  0  0  0  0  0  0  0  0  0  0
   -1.2673    0.8079   -0.6679 C   0  0  0  0  0  0  0  0  0  0  0  0
   -1.7037    1.8407   -1.5363 C   0  0  0  0  0  0  0  0  0  0  0  0
   -3.0506    2.1260   -1.7564 C   0  0  0  0  0  0  0  0  0  0  0  0
   -4.0245    1.3849   -1.1123 C   0  0  0  0  0  0  0  0  0  0  0  0
    1.2711    1.2404   -1.0381 C   0  0  0  0  0  0  0  0  0  0  0  0
    1.1168    2.2042   -1.7764 O   0  0  0  0  0  0  0  0  0  0  0  0
    2.7257    0.8064   -0.7453 C   0  0  0  0  0  0  0  0  0  0  0  0
    3.6629    1.3733   -1.2923 O   0  0  0  0  0  0  0  0  0  0  0  0
    2.9182   -0.2759    0.1826 C   0  0  0  0  0  0  0  0  0  0  0  0
    1.8191   -0.8853    0.7205 C   0  0  0  0  0  0  0  0  0  0  0  0
    2.1788   -1.8790    1.5674 O   0  0  0  0  0  0  0  0  0  0  0  0
    3.5416   -1.9004    1.5690 C   0  0  0  0  0  0  0  0  0  0  0  0
    4.0559   -0.9264    0.7307 C   0  0  0  0  0  0  0  0  0  0  0  0
    5.4831   -0.6288    0.4614 C   0  0  0  0  0  0  0  0  0  0  0  0
   -4.7599   -1.4677    0.1044 H   0  0  0  0  0  0  0  0  0  0  0  0
   -4.6790   -0.3674    1.5154 H   0  0  0  0  0  0  0  0  0  0  0  0
   -5.7606   -0.0148    0.1711 H   0  0  0  0  0  0  0  0  0  0  0  0
   -2.6628   -1.5972    1.3548 H   0  0  0  0  0  0  0  0  0  0  0  0
   -0.3456   -2.1264    1.7721 H   0  0  0  0  0  0  0  0  0  0  0  0
   -1.0008    2.4647   -2.0803 H   0  0  0  0  0  0  0  0  0  0  0  0
   -3.3291    2.9298   -2.4335 H   0  0  0  0  0  0  0  0  0  0  0  0
   -5.0716    1.6183   -1.2911 H   0  0  0  0  0  0  0  0  0  0  0  0
    3.9925   -2.6493    2.2072 H   0  0  0  0  0  0  0  0  0  0  0  0
    5.7538   -0.9382   -0.5537 H   0  0  0  0  0  0  0  0  0  0  0  0
    5.6848    0.4431    0.5606 H   0  0  0  0  0  0  0  0  0  0  0  0
    6.1352   -1.1579    1.1646 H   0  0  0  0  0  0  0  0  0  0  0  0
  1  2  1  0
  2  3  2  0
  3  4  1  0
  4  5  2  0
  5  6  1  0
  6  7  2  0
  7  8  1  0
  8  9  2  0
  9 10  1  0
 10 11  2  0
  7 12  1  0
 12 13  2  0
 12 14  1  0
 14 15  2  0
 14 16  1  0
 16 17  2  0
 17 18  1  0
 18 19  1  0
 19 20  2  0
 20 21  1  0
 11  2  1  0
  8  3  1  0
 17  6  1  0
 20 16  1  0
  1 22  1  0
  1 23  1  0
  1 24  1  0
  4 25  1  0
  5 26  1  0
  9 27  1  0
 10 28  1  0
 11 29  1  0
 19 30  1  0
 21 31  1  0
 21 32  1  0
 21 33  1  0
M  END
$$$$
