
     RDKit          3D

 39 40  0  0  0  0  0  0  0  0999 V2000
   -5.7631    0.3101    0.4010 C   0  0  0  0  0  0  0  0  0  0  0  0
   -4.9080    0.0611   -0.8166 C   0  0  2  0  0  0  0  0  0  0  0  0
   -3.4946   -0.0465   -0.3690 C   0  0  0  0  0  0  0  0  0  0  0  0
   -2.4340    0.1436   -1.2161 C   0  0  0  0  0  0  0  0  0  0  0  0
   -1.1123    0.0335   -0.7594 C   0  0  0  0  0  0  0  0  0  0  0  0
   -0.8180   -0.2672    0.5463 C   0  0  0  0  0  0  0  0  0  0  0  0
   -1.9082   -0.4547    1.3829 C   0  0  0  0  0  0  0  0  0  0  0  0
   -3.2046   -0.3481    0.9408 C   0  0  0  0  0  0  0  0  0  0  0  0
    0.5470   -0.3840    1.0317 C   0  0  0  0  0  0  0  0  0  0  0  0
    0.6771   -0.6634    2.2466 O   0  0  0  0  0  0  0  0  0  0  0  0
    1.6722   -0.1991    0.2076 N   0  0  0  0  0  0  0  0  0  0  0  0
    3.0214   -0.2999    0.6238 C   0  0  0  0  0  0  0  0  0  0  0  0
    4.0159   -0.0854   -0.3281 C   0  0  0  0  0  0  0  0  0  0  0  0
    3.9630    0.2238   -1.6750 C   0  0  0  0  0  0  0  0  0  0  0  0
    5.2432    0.3330   -2.1724 C   0  0  0  0  0  0  0  0  0  0  0  0
    6.0753    0.0950   -1.1490 N   0  0  0  0  0  0  0  0  0  0  0  0
    5.3604   -0.1587   -0.0313 C   0  0  0  0  0  0  0  0  0  0  0  0
    5.7529   -0.4502    1.2327 N   0  0  0  0  0  0  0  0  0  0  0  0
    4.8028   -0.6582    2.1555 C   0  0  0  0  0  0  0  0  0  0  0  0
    3.4321   -0.5885    1.8745 C   0  0  0  0  0  0  0  0  0  0  0  0
   -4.9995    1.2519   -1.6419 N   0  0  0  0  0  0  0  0  0  0  0  0
    0.6890    0.0000    0.0000 Cl  0  0  0  0  0  0  0  0  0  0  0  0
   -5.9267   -0.6453    0.9372 H   0  0  0  0  0  0  0  0  0  0  0  0
   -6.7343    0.7561    0.0985 H   0  0  0  0  0  0  0  0  0  0  0  0
   -5.2352    1.0260    1.0674 H   0  0  0  0  0  0  0  0  0  0  0  0
   -5.2380   -0.7921   -1.4113 H   0  0  0  0  0  0  0  0  0  0  0  0
   -2.6104    0.3811   -2.2486 H   0  0  0  0  0  0  0  0  0  0  0  0
   -0.3209    0.1988   -1.4940 H   0  0  0  0  0  0  0  0  0  0  0  0
   -1.6709   -0.6947    2.4247 H   0  0  0  0  0  0  0  0  0  0  0  0
   -4.0201   -0.5049    1.6366 H   0  0  0  0  0  0  0  0  0  0  0  0
    1.4767    0.0372   -0.8184 H   0  0  0  0  0  0  0  0  0  0  0  0
    3.0321    0.3522   -2.2186 H   0  0  0  0  0  0  0  0  0  0  0  0
    5.5036    0.5698   -3.2090 H   0  0  0  0  0  0  0  0  0  0  0  0
    7.1219    0.1111   -1.2369 H   0  0  0  0  0  0  0  0  0  0  0  0
    5.1483   -0.8924    3.1701 H   0  0  0  0  0  0  0  0  0  0  0  0
    2.7862   -0.7779    2.7109 H   0  0  0  0  0  0  0  0  0  0  0  0
   -4.4035    2.0058   -1.2803 H   0  0  0  0  0  0  0  0  0  0  0  0
   -4.8297    1.0211   -2.6531 H   0  0  0  0  0  0  0  0  0  0  0  0
   -0.6890    0.0000    0.0000 H   0  0  0  0  0  0  0  0  0  0  0  0
  1  2  1  0
  2  3  1  0
  3  4  2  0
  4  5  1  0
  5  6  2  0
  6  7  1  0
  7  8  2  0
  6  9  1  0
  9 10  2  0
  9 11  1  0
 11 12  1  0
 12 13  2  0
 13 14  1  0
 14 15  2  0
 15 16  1  0
 16 17  1  0
 17 18  2  0
 18 19  1  0
 19 20  2  0
  2 21  1  0
  8  3  1  0
 20 12  1  0
 17 13  1  0
  1 23  1  0
  1 24  1  0
  1 25  1  0
  2 26  1  6
  4 27  1  0
  5 28  1  0
  7 29  1  0
  8 30  1  0
 11 31  1  0
 14 32  1  0
 15 33  1  0
 16 34  1  0
 19 35  1  0
 20 36  1  0
 21 37  1  0
 21 38  1  0
 22 39  1  0
M  END
$$$$
