
     RDKit          3D

109112  0  0  0  0  0  0  0  0999 V2000
    8.1012    2.8575   -0.8148 C   0  0  0  0  0  0  0  0  0  0  0  0
    6.6675    3.3090   -0.5444 C   0  0  0  0  0  0  0  0  0  0  0  0
    5.8849    3.4016   -1.8546 C   0  0  0  0  0  0  0  0  0  0  0  0
    5.9306    2.4655    0.5179 C   0  0  0  0  0  0  0  0  0  0  0  0
    5.7332    0.9736    0.2064 C   0  0  1  0  0  0  0  0  0  0  0  0
    6.9604    0.0869    0.4823 C   0  0  0  0  0  0  0  0  0  0  0  0
    7.4921   -0.5894   -0.3981 O   0  0  0  0  0  0  0  0  0  0  0  0
    7.5322    0.0281    1.8675 C   0  0  1  0  0  0  0  0  0  0  0  0
    9.0540    0.0619    1.9806 C   0  0  0  0  0  0  0  0  0  0  0  0
    8.2519    1.2045    2.2857 O   0  0  0  0  0  0  0  0  0  0  0  0
    6.7766   -0.6295    2.9792 C   0  0  0  0  0  0  0  0  0  0  0  0
    4.5798    0.4621    0.9576 N   0  0  0  0  0  0  0  0  0  0  0  0
    3.6852   -0.4296    0.3981 C   0  0  0  0  0  0  0  0  0  0  0  0
    3.8437   -0.9280   -0.7140 O   0  0  0  0  0  0  0  0  0  0  0  0
    2.4892   -0.7824    1.3002 C   0  0  2  0  0  0  0  0  0  0  0  0
    2.8865   -1.7904    2.3930 C   0  0  0  0  0  0  0  0  0  0  0  0
    3.0197   -3.2233    1.9291 C   0  0  0  0  0  0  0  0  0  0  0  0
    4.1545   -3.6624    1.2357 C   0  0  0  0  0  0  0  0  0  0  0  0
    4.2515   -4.9868    0.8063 C   0  0  0  0  0  0  0  0  0  0  0  0
    3.2187   -5.8843    1.0653 C   0  0  0  0  0  0  0  0  0  0  0  0
    2.0850   -5.4600    1.7528 C   0  0  0  0  0  0  0  0  0  0  0  0
    1.9844   -4.1363    2.1804 C   0  0  0  0  0  0  0  0  0  0  0  0
    1.3777   -1.2536    0.4819 N   0  0  0  0  0  0  0  0  0  0  0  0
    0.3293   -0.4381    0.1231 C   0  0  0  0  0  0  0  0  0  0  0  0
    0.2282    0.7261    0.5099 O   0  0  0  0  0  0  0  0  0  0  0  0
   -0.7187   -1.1137   -0.7862 C   0  0  2  0  0  0  0  0  0  0  0  0
   -0.2930   -1.2685   -2.2576 C   0  0  0  0  0  0  0  0  0  0  0  0
    0.1703   -0.0523   -3.0946 C   0  0  0  0  0  0  0  0  0  0  0  0
    1.6072    0.3706   -2.7971 C   0  0  0  0  0  0  0  0  0  0  0  0
   -0.7617    1.1548   -3.0413 C   0  0  0  0  0  0  0  0  0  0  0  0
   -2.0044   -0.4397   -0.6312 N   0  0  0  0  0  0  0  0  0  0  0  0
   -2.8417   -0.7635    0.4164 C   0  0  0  0  0  0  0  0  0  0  0  0
   -2.6275   -1.7019    1.1823 O   0  0  0  0  0  0  0  0  0  0  0  0
   -4.0572    0.1765    0.5913 C   0  0  2  0  0  0  0  0  0  0  0  0
   -3.7361    1.2582    1.6327 C   0  0  0  0  0  0  0  0  0  0  0  0
   -2.9538    2.4578    1.0882 C   0  0  0  0  0  0  0  0  0  0  0  0
   -3.7859    3.3712    0.2211 C   0  0  0  0  0  0  0  0  0  0  0  0
   -3.5667    3.4493   -1.1603 C   0  0  0  0  0  0  0  0  0  0  0  0
   -4.3429    4.2959   -1.9537 C   0  0  0  0  0  0  0  0  0  0  0  0
   -5.3385    5.0803   -1.3755 C   0  0  0  0  0  0  0  0  0  0  0  0
   -5.5581    5.0203   -0.0019 C   0  0  0  0  0  0  0  0  0  0  0  0
   -4.7866    4.1701    0.7920 C   0  0  0  0  0  0  0  0  0  0  0  0
   -5.1587   -0.6530    1.0828 N   0  0  0  0  0  0  0  0  0  0  0  0
   -5.8875   -1.4257    0.1935 C   0  0  0  0  0  0  0  0  0  0  0  0
   -5.7283   -1.3532   -1.0214 O   0  0  0  0  0  0  0  0  0  0  0  0
   -6.8781   -2.3776    0.8695 C   0  0  0  0  0  0  0  0  0  0  0  0
   -8.2547   -2.3342    0.3627 N   0  0  0  0  0  0  0  0  0  0  0  0
   -8.4980   -3.0255   -0.9139 C   0  0  0  0  0  0  0  0  0  0  0  0
   -8.5512   -2.1454   -2.1759 C   0  0  0  0  0  0  0  0  0  0  0  0
   -9.3862   -0.9956   -1.9866 O   0  0  0  0  0  0  0  0  0  0  0  0
   -8.8942   -0.2161   -0.8905 C   0  0  0  0  0  0  0  0  0  0  0  0
   -8.9156   -1.0239    0.4190 C   0  0  0  0  0  0  0  0  0  0  0  0
    8.1388    1.8751   -1.2922 H   0  0  0  0  0  0  0  0  0  0  0  0
    8.6832    2.8199    0.1116 H   0  0  0  0  0  0  0  0  0  0  0  0
    8.6009    3.5639   -1.4874 H   0  0  0  0  0  0  0  0  0  0  0  0
    6.7244    4.3274   -0.1373 H   0  0  0  0  0  0  0  0  0  0  0  0
    5.8707    2.4477   -2.3920 H   0  0  0  0  0  0  0  0  0  0  0  0
    6.3434    4.1411   -2.5186 H   0  0  0  0  0  0  0  0  0  0  0  0
    4.8514    3.7153   -1.6744 H   0  0  0  0  0  0  0  0  0  0  0  0
    6.4305    2.5906    1.4841 H   0  0  0  0  0  0  0  0  0  0  0  0
    4.9398    2.9251    0.6562 H   0  0  0  0  0  0  0  0  0  0  0  0
    5.5001    0.8539   -0.8568 H   0  0  0  0  0  0  0  0  0  0  0  0
    9.5368   -0.4540    2.8012 H   0  0  0  0  0  0  0  0  0  0  0  0
    9.6386    0.0821    1.0690 H   0  0  0  0  0  0  0  0  0  0  0  0
    5.9617    0.0140    3.3239 H   0  0  0  0  0  0  0  0  0  0  0  0
    7.4142   -0.8320    3.8470 H   0  0  0  0  0  0  0  0  0  0  0  0
    6.3542   -1.5828    2.6513 H   0  0  0  0  0  0  0  0  0  0  0  0
    4.3445    0.9048    1.8403 H   0  0  0  0  0  0  0  0  0  0  0  0
    2.1857    0.1465    1.7964 H   0  0  0  0  0  0  0  0  0  0  0  0
    3.8268   -1.4927    2.8752 H   0  0  0  0  0  0  0  0  0  0  0  0
    2.1287   -1.7564    3.1865 H   0  0  0  0  0  0  0  0  0  0  0  0
    4.9726   -2.9829    1.0089 H   0  0  0  0  0  0  0  0  0  0  0  0
    5.1359   -5.3179    0.2695 H   0  0  0  0  0  0  0  0  0  0  0  0
    3.2978   -6.9144    0.7304 H   0  0  0  0  0  0  0  0  0  0  0  0
    1.2772   -6.1583    1.9526 H   0  0  0  0  0  0  0  0  0  0  0  0
    1.0889   -3.8228    2.7144 H   0  0  0  0  0  0  0  0  0  0  0  0
    1.5670   -2.0748   -0.0815 H   0  0  0  0  0  0  0  0  0  0  0  0
   -0.8473   -2.1335   -0.3951 H   0  0  0  0  0  0  0  0  0  0  0  0
    0.5054   -2.0230   -2.3009 H   0  0  0  0  0  0  0  0  0  0  0  0
   -1.1454   -1.7129   -2.7931 H   0  0  0  0  0  0  0  0  0  0  0  0
    0.1751   -0.4000   -4.1360 H   0  0  0  0  0  0  0  0  0  0  0  0
    2.2869   -0.4814   -2.8688 H   0  0  0  0  0  0  0  0  0  0  0  0
    1.7141    0.8171   -1.8073 H   0  0  0  0  0  0  0  0  0  0  0  0
    1.9484    1.1156   -3.5222 H   0  0  0  0  0  0  0  0  0  0  0  0
   -0.5082    1.8718   -3.8260 H   0  0  0  0  0  0  0  0  0  0  0  0
   -0.6727    1.6790   -2.0847 H   0  0  0  0  0  0  0  0  0  0  0  0
   -1.8005    0.8534   -3.1991 H   0  0  0  0  0  0  0  0  0  0  0  0
   -2.0816    0.4962   -0.9982 H   0  0  0  0  0  0  0  0  0  0  0  0
   -4.3448    0.6052   -0.3740 H   0  0  0  0  0  0  0  0  0  0  0  0
   -4.6680    1.6114    2.0940 H   0  0  0  0  0  0  0  0  0  0  0  0
   -3.1501    0.8128    2.4498 H   0  0  0  0  0  0  0  0  0  0  0  0
   -2.0590    2.1299    0.5497 H   0  0  0  0  0  0  0  0  0  0  0  0
   -2.5846    3.0498    1.9358 H   0  0  0  0  0  0  0  0  0  0  0  0
   -2.7903    2.8554   -1.6328 H   0  0  0  0  0  0  0  0  0  0  0  0
   -4.1671    4.3501   -3.0251 H   0  0  0  0  0  0  0  0  0  0  0  0
   -5.9386    5.7426   -1.9951 H   0  0  0  0  0  0  0  0  0  0  0  0
   -6.3304    5.6332    0.4541 H   0  0  0  0  0  0  0  0  0  0  0  0
   -4.9657    4.1404    1.8648 H   0  0  0  0  0  0  0  0  0  0  0  0
   -5.0071   -1.0678    1.9971 H   0  0  0  0  0  0  0  0  0  0  0  0
   -6.9169   -2.1463    1.9412 H   0  0  0  0  0  0  0  0  0  0  0  0
   -6.4727   -3.3951    0.7998 H   0  0  0  0  0  0  0  0  0  0  0  0
   -9.4887   -3.4919   -0.8178 H   0  0  0  0  0  0  0  0  0  0  0  0
   -7.7944   -3.8551   -1.0651 H   0  0  0  0  0  0  0  0  0  0  0  0
   -7.5588   -1.8220   -2.5001 H   0  0  0  0  0  0  0  0  0  0  0  0
   -8.9817   -2.7251   -3.0012 H   0  0  0  0  0  0  0  0  0  0  0  0
   -9.5554    0.6512   -0.7867 H   0  0  0  0  0  0  0  0  0  0  0  0
   -7.8926    0.1574   -1.1249 H   0  0  0  0  0  0  0  0  0  0  0  0
   -8.5241   -0.4121    1.2422 H   0  0  0  0  0  0  0  0  0  0  0  0
   -9.9669   -1.2221    0.6671 H   0  0  0  0  0  0  0  0  0  0  0  0
  1  2  1  0
  2  3  1  0
  2  4  1  0
  4  5  1  0
  5  6  1  0
  6  7  2  0
  6  8  1  0
  8  9  1  0
  9 10  1  0
  8 11  1  1
  5 12  1  0
 12 13  1  0
 13 14  2  0
 13 15  1  0
 15 16  1  0
 16 17  1  0
 17 18  2  0
 18 19  1  0
 19 20  2  0
 20 21  1  0
 21 22  2  0
 15 23  1  0
 23 24  1  0
 24 25  2  0
 24 26  1  0
 26 27  1  0
 27 28  1  0
 28 29  1  0
 28 30  1  0
 26 31  1  0
 31 32  1  0
 32 33  2  0
 32 34  1  0
 34 35  1  0
 35 36  1  0
 36 37  1  0
 37 38  2  0
 38 39  1  0
 39 40  2  0
 40 41  1  0
 41 42  2  0
 34 43  1  0
 43 44  1  0
 44 45  2  0
 44 46  1  0
 46 47  1  0
 47 48  1  0
 48 49  1  0
 49 50  1  0
 50 51  1  0
 51 52  1  0
 10  8  1  0
 22 17  1  0
 42 37  1  0
 52 47  1  0
  1 53  1  0
  1 54  1  0
  1 55  1  0
  2 56  1  0
  3 57  1  0
  3 58  1  0
  3 59  1  0
  4 60  1  0
  4 61  1  0
  5 62  1  6
  9 63  1  0
  9 64  1  0
 11 65  1  0
 11 66  1  0
 11 67  1  0
 12 68  1  0
 15 69  1  1
 16 70  1  0
 16 71  1  0
 18 72  1  0
 19 73  1  0
 20 74  1  0
 21 75  1  0
 22 76  1  0
 23 77  1  0
 26 78  1  1
 27 79  1  0
 27 80  1  0
 28 81  1  0
 29 82  1  0
 29 83  1  0
 29 84  1  0
 30 85  1  0
 30 86  1  0
 30 87  1  0
 31 88  1  0
 34 89  1  6
 35 90  1  0
 35 91  1  0
 36 92  1  0
 36 93  1  0
 38 94  1  0
 39 95  1  0
 40 96  1  0
 41 97  1  0
 42 98  1  0
 43 99  1  0
 46100  1  0
 46101  1  0
 48102  1  0
 48103  1  0
 49104  1  0
 49105  1  0
 51106  1  0
 51107  1  0
 52108  1  0
 52109  1  0
M  END
$$$$
