
     RDKit          3D

 49 53  0  0  0  0  0  0  0  0999 V2000
    1.7839    0.7413    3.7812 C   0  0  0  0  0  0  0  0  0  0  0  0
    0.6085    0.7974    2.8107 C   0  0  0  0  0  0  0  0  0  0  0  0
    0.8458   -0.0787    1.5698 C   0  0  1  0  0  0  0  0  0  0  0  0
   -0.4839   -0.6761    1.0060 C   0  0  0  0  0  0  0  0  0  0  0  0
   -0.7959   -1.8391    1.5020 N   0  0  0  0  0  0  0  0  0  0  0  0
   -1.9019   -2.5300    1.0120 C   0  0  0  0  0  0  0  0  0  0  0  0
   -2.6880   -2.0386   -0.0215 C   0  0  0  0  0  0  0  0  0  0  0  0
   -3.7649   -2.7899   -0.4945 C   0  0  0  0  0  0  0  0  0  0  0  0
   -4.0615   -4.0336    0.0598 C   0  0  0  0  0  0  0  0  0  0  0  0
   -3.2781   -4.5321    1.0964 C   0  0  0  0  0  0  0  0  0  0  0  0
   -2.2011   -3.7797    1.5675 C   0  0  0  0  0  0  0  0  0  0  0  0
   -4.5497   -2.3478   -1.4867 F   0  0  0  0  0  0  0  0  0  0  0  0
   -2.3535   -0.7101   -0.5544 C   0  0  0  0  0  0  0  0  0  0  0  0
   -3.0464   -0.2389   -1.4541 O   0  0  0  0  0  0  0  0  0  0  0  0
   -1.2674   -0.0464    0.0465 N   0  0  0  0  0  0  0  0  0  0  0  0
   -1.0432    1.2912   -0.3878 C   0  0  0  0  0  0  0  0  0  0  0  0
   -1.1885    2.3616    0.5005 C   0  0  0  0  0  0  0  0  0  0  0  0
   -0.9659    3.6717    0.0693 C   0  0  0  0  0  0  0  0  0  0  0  0
   -0.6216    3.9221   -1.2583 C   0  0  0  0  0  0  0  0  0  0  0  0
   -0.5178    2.8659   -2.1611 C   0  0  0  0  0  0  0  0  0  0  0  0
   -0.7377    1.5564   -1.7303 C   0  0  0  0  0  0  0  0  0  0  0  0
    1.6819    0.6381    0.5968 N   0  0  0  0  0  0  0  0  0  0  0  0
    2.1761   -0.0869   -0.4777 C   0  0  0  0  0  0  0  0  0  0  0  0
    2.1335   -1.4342   -0.5011 N   0  0  0  0  0  0  0  0  0  0  0  0
    2.6138   -2.0882   -1.5801 C   0  0  0  0  0  0  0  0  0  0  0  0
    3.1483   -1.5678   -2.6903 N   0  0  0  0  0  0  0  0  0  0  0  0
    3.1948   -0.2257   -2.6538 C   0  0  0  0  0  0  0  0  0  0  0  0
    2.7317    0.5236   -1.5881 C   0  0  0  0  0  0  0  0  0  0  0  0
    2.9738    1.8201   -1.9504 N   0  0  0  0  0  0  0  0  0  0  0  0
    3.5459    1.8043   -3.1922 C   0  0  0  0  0  0  0  0  0  0  0  0
    3.6902    0.5793   -3.6454 N   0  0  0  0  0  0  0  0  0  0  0  0
    1.9427   -0.2779    4.1477 H   0  0  0  0  0  0  0  0  0  0  0  0
    2.7071    1.0851    3.3041 H   0  0  0  0  0  0  0  0  0  0  0  0
    1.5897    1.3838    4.6459 H   0  0  0  0  0  0  0  0  0  0  0  0
    0.4639    1.8461    2.5366 H   0  0  0  0  0  0  0  0  0  0  0  0
   -0.2945    0.4720    3.3405 H   0  0  0  0  0  0  0  0  0  0  0  0
    1.4230   -0.9499    1.9163 H   0  0  0  0  0  0  0  0  0  0  0  0
   -4.9036   -4.6026   -0.3236 H   0  0  0  0  0  0  0  0  0  0  0  0
   -3.4994   -5.5024    1.5342 H   0  0  0  0  0  0  0  0  0  0  0  0
   -1.5795   -4.1691    2.3711 H   0  0  0  0  0  0  0  0  0  0  0  0
   -1.5217    2.1921    1.5209 H   0  0  0  0  0  0  0  0  0  0  0  0
   -1.0921    4.5003    0.7626 H   0  0  0  0  0  0  0  0  0  0  0  0
   -0.4727    4.9444   -1.5984 H   0  0  0  0  0  0  0  0  0  0  0  0
   -0.2889    3.0581   -3.2069 H   0  0  0  0  0  0  0  0  0  0  0  0
   -0.6673    0.7416   -2.4493 H   0  0  0  0  0  0  0  0  0  0  0  0
    1.3751    1.5718    0.3591 H   0  0  0  0  0  0  0  0  0  0  0  0
    2.5551   -3.1716   -1.5411 H   0  0  0  0  0  0  0  0  0  0  0  0
    2.7668    2.6403   -1.3991 H   0  0  0  0  0  0  0  0  0  0  0  0
    3.8351    2.7089   -3.7112 H   0  0  0  0  0  0  0  0  0  0  0  0
  1  2  1  0
  2  3  1  0
  3  4  1  0
  4  5  2  0
  5  6  1  0
  6  7  2  0
  7  8  1  0
  8  9  2  0
  9 10  1  0
 10 11  2  0
  8 12  1  0
  7 13  1  0
 13 14  2  0
 13 15  1  0
 15 16  1  0
 16 17  2  0
 17 18  1  0
 18 19  2  0
 19 20  1  0
 20 21  2  0
  3 22  1  0
 22 23  1  0
 23 24  2  0
 24 25  1  0
 25 26  2  0
 26 27  1  0
 27 28  2  0
 28 29  1  0
 29 30  1  0
 30 31  2  0
 15  4  1  0
 11  6  1  0
 21 16  1  0
 28 23  1  0
 31 27  1  0
  1 32  1  0
  1 33  1  0
  1 34  1  0
  2 35  1  0
  2 36  1  0
  3 37  1  1
  9 38  1  0
 10 39  1  0
 11 40  1  0
 17 41  1  0
 18 42  1  0
 19 43  1  0
 20 44  1  0
 21 45  1  0
 22 46  1  0
 25 47  1  0
 29 48  1  0
 30 49  1  0
M  END
$$$$
