
     RDKit          3D

 51 54  0  0  0  0  0  0  0  0999 V2000
    6.3582    0.6775    0.5977 C   0  0  0  0  0  0  0  0  0  0  0  0
    5.0753    1.4731    0.3743 C   0  0  0  0  0  0  0  0  0  0  0  0
    5.0289    2.0151   -1.0890 C   0  0  0  0  0  0  0  0  0  0  0  0
    3.7055    1.6270   -1.7064 N   0  0  0  0  0  0  0  0  0  0  0  0
    3.1312    0.7353   -0.7649 C   0  0  0  0  0  0  0  0  0  0  0  0
    3.8608    0.5846    0.4158 C   0  0  0  0  0  0  0  0  0  0  0  0
    3.4978   -0.3456    1.3824 C   0  0  0  0  0  0  0  0  0  0  0  0
    2.3829   -1.1605    1.1443 C   0  0  0  0  0  0  0  0  0  0  0  0
    1.6010   -0.9675   -0.0194 C   0  0  0  0  0  0  0  0  0  0  0  0
    1.9685   -0.0048   -0.9826 C   0  0  0  0  0  0  0  0  0  0  0  0
    0.5154   -1.8307   -0.2114 N   0  0  0  0  0  0  0  0  0  0  0  0
   -0.7684   -1.3933   -0.4554 C   0  0  0  0  0  0  0  0  0  0  0  0
   -1.0781   -0.1793   -0.4732 O   0  0  0  0  0  0  0  0  0  0  0  0
   -1.8520   -2.4332   -0.5506 C   0  0  0  0  0  0  0  0  0  0  0  0
   -3.1880   -2.1179   -0.2347 C   0  0  0  0  0  0  0  0  0  0  0  0
   -4.1774   -3.0388   -0.3882 N   0  0  0  0  0  0  0  0  0  0  0  0
   -3.8600   -4.2836   -0.8290 C   0  0  0  0  0  0  0  0  0  0  0  0
   -2.5759   -4.6613   -1.1620 C   0  0  0  0  0  0  0  0  0  0  0  0
   -1.5582   -3.7214   -1.0186 C   0  0  0  0  0  0  0  0  0  0  0  0
   -3.5178   -0.8982    0.3720 N   0  0  0  0  0  0  0  0  0  0  0  0
   -4.8750   -0.4657    0.0657 C   0  0  0  0  0  0  0  0  0  0  0  0
   -5.0475    0.9693    0.5195 C   0  0  0  0  0  0  0  0  0  0  0  0
   -5.1118    2.0173   -0.4213 C   0  0  0  0  0  0  0  0  0  0  0  0
   -5.2101    3.3062    0.0473 C   0  0  0  0  0  0  0  0  0  0  0  0
   -5.2745    3.6289    1.3644 N   0  0  0  0  0  0  0  0  0  0  0  0
   -5.1996    2.6107    2.2395 C   0  0  0  0  0  0  0  0  0  0  0  0
   -5.0951    1.2798    1.8833 C   0  0  0  0  0  0  0  0  0  0  0  0
    4.9715    2.6138    1.3896 C   0  0  0  0  0  0  0  0  0  0  0  0
    7.2547    1.2833    0.3765 H   0  0  0  0  0  0  0  0  0  0  0  0
    6.4476    0.3569    1.6451 H   0  0  0  0  0  0  0  0  0  0  0  0
    6.3950   -0.2141   -0.0366 H   0  0  0  0  0  0  0  0  0  0  0  0
    5.8151    1.5641   -1.6957 H   0  0  0  0  0  0  0  0  0  0  0  0
    5.1525    3.1102   -1.1450 H   0  0  0  0  0  0  0  0  0  0  0  0
    3.8624    1.1223   -2.5824 H   0  0  0  0  0  0  0  0  0  0  0  0
    4.0868   -0.4955    2.2689 H   0  0  0  0  0  0  0  0  0  0  0  0
    2.1060   -1.9068    1.8775 H   0  0  0  0  0  0  0  0  0  0  0  0
    1.3748    0.1607   -1.8899 H   0  0  0  0  0  0  0  0  0  0  0  0
    0.6185   -2.7649    0.1953 H   0  0  0  0  0  0  0  0  0  0  0  0
   -4.6887   -4.9870   -0.8877 H   0  0  0  0  0  0  0  0  0  0  0  0
   -2.3634   -5.6648   -1.5203 H   0  0  0  0  0  0  0  0  0  0  0  0
   -0.5373   -4.0254   -1.3023 H   0  0  0  0  0  0  0  0  0  0  0  0
   -2.8401   -0.1919    0.0381 H   0  0  0  0  0  0  0  0  0  0  0  0
   -5.0409   -0.4900   -1.0132 H   0  0  0  0  0  0  0  0  0  0  0  0
   -5.6353   -1.0793    0.5589 H   0  0  0  0  0  0  0  0  0  0  0  0
   -5.0558    1.8337   -1.4745 H   0  0  0  0  0  0  0  0  0  0  0  0
   -5.2684    4.1635   -0.6192 H   0  0  0  0  0  0  0  0  0  0  0  0
   -5.2418    2.9170    3.2851 H   0  0  0  0  0  0  0  0  0  0  0  0
   -5.0191    0.5210    2.6438 H   0  0  0  0  0  0  0  0  0  0  0  0
    4.0656    3.2290    1.2518 H   0  0  0  0  0  0  0  0  0  0  0  0
    5.8379    3.2912    1.3287 H   0  0  0  0  0  0  0  0  0  0  0  0
    4.9664    2.2299    2.4208 H   0  0  0  0  0  0  0  0  0  0  0  0
  1  2  1  0
  2  3  1  0
  3  4  1  0
  4  5  1  0
  5  6  2  0
  6  7  1  0
  7  8  2  0
  8  9  1  0
  9 10  2  0
  9 11  1  0
 11 12  1  0
 12 13  2  0
 12 14  1  0
 14 15  1  0
 15 16  2  0
 16 17  1  0
 17 18  2  0
 18 19  1  0
 15 20  1  0
 20 21  1  0
 21 22  1  0
 22 23  2  0
 23 24  1  0
 24 25  2  0
 25 26  1  0
 26 27  2  0
  2 28  1  0
  6  2  1  0
 10  5  1  0
 19 14  2  0
 27 22  1  0
  1 29  1  0
  1 30  1  0
  1 31  1  0
  3 32  1  0
  3 33  1  0
  4 34  1  0
  7 35  1  0
  8 36  1  0
 10 37  1  0
 11 38  1  0
 17 39  1  0
 18 40  1  0
 19 41  1  0
 20 42  1  0
 21 43  1  0
 21 44  1  0
 23 45  1  0
 24 46  1  0
 26 47  1  0
 27 48  1  0
 28 49  1  0
 28 50  1  0
 28 51  1  0
M  END
$$$$
