
     RDKit          3D

 60 63  0  0  0  0  0  0  0  0999 V2000
    3.9070   -1.3663   -2.8151 C   0  0  0  0  0  0  0  0  0  0  0  0
    2.9988   -0.6760   -1.8251 C   0  0  0  0  0  0  0  0  0  0  0  0
    1.7030   -1.0505   -1.7762 C   0  0  0  0  0  0  0  0  0  0  0  0
    0.7094   -0.3715   -0.8763 C   0  0  2  0  0  0  0  0  0  0  0  0
    1.3885    0.0766    0.4483 C   0  0  2  0  0  0  0  0  0  0  0  0
    0.4150    0.5852    1.5459 C   0  0  0  0  0  0  0  0  0  0  0  0
   -1.0518    0.0822    1.5584 C   0  0  0  0  0  0  0  0  0  0  0  0
   -1.6262   -0.1585    0.1340 C   0  0  1  0  0  0  0  0  0  0  0  0
   -0.5567   -1.1325   -0.4895 C   0  0  1  0  0  0  0  0  0  0  0  0
   -1.3360   -1.9391   -1.5070 C   0  0  0  0  0  0  0  0  0  0  0  0
   -2.5851   -2.2996   -0.7092 C   0  0  0  0  0  0  0  0  0  0  0  0
   -3.0160   -0.9760   -0.0061 C   0  0  2  0  0  0  0  0  0  0  0  0
   -4.1047   -0.4280   -1.0212 C   0  0  0  0  0  0  0  0  0  0  0  0
   -3.8219    0.0332   -2.1407 O   0  0  0  0  0  0  0  0  0  0  0  0
   -5.5631   -0.5658   -0.6755 C   0  0  0  0  0  0  0  0  0  0  0  0
   -3.5206   -1.3491    1.2922 O   0  0  0  0  0  0  0  0  0  0  0  0
   -4.0794   -0.3718    2.0639 C   0  0  0  0  0  0  0  0  0  0  0  0
   -4.2357    0.7854    1.7178 O   0  0  0  0  0  0  0  0  0  0  0  0
   -4.5158   -0.9153    3.3906 C   0  0  0  0  0  0  0  0  0  0  0  0
   -1.7392    1.2380   -0.5594 C   0  0  0  0  0  0  0  0  0  0  0  0
    2.6136    1.0152    0.1167 C   0  0  2  0  0  0  0  0  0  0  0  0
    3.5612    0.3691   -0.9438 C   0  0  0  0  0  0  0  0  0  0  0  0
    4.8563    0.7665   -1.0499 C   0  0  0  0  0  0  0  0  0  0  0  0
    5.4312    1.7802   -0.1369 C   0  0  0  0  0  0  0  0  0  0  0  0
    6.4617    2.3788   -0.4831 O   0  0  0  0  0  0  0  0  0  0  0  0
    4.7293    2.0598    1.1781 C   0  0  0  0  0  0  0  0  0  0  0  0
    3.4674    1.2198    1.3898 C   0  0  0  0  0  0  0  0  0  0  0  0
    2.1300    2.3854   -0.4307 C   0  0  0  0  0  0  0  0  0  0  0  0
    4.2353   -0.6804   -3.6054 H   0  0  0  0  0  0  0  0  0  0  0  0
    4.8104   -1.7768   -2.3407 H   0  0  0  0  0  0  0  0  0  0  0  0
    3.4271   -2.2030   -3.3332 H   0  0  0  0  0  0  0  0  0  0  0  0
    1.3115   -1.7997   -2.4586 H   0  0  0  0  0  0  0  0  0  0  0  0
    0.4174    0.5001   -1.4684 H   0  0  0  0  0  0  0  0  0  0  0  0
    1.8350   -0.8477    0.8746 H   0  0  0  0  0  0  0  0  0  0  0  0
    0.8377    0.3258    2.5429 H   0  0  0  0  0  0  0  0  0  0  0  0
    0.3622    1.6853    1.5383 H   0  0  0  0  0  0  0  0  0  0  0  0
   -1.6508    0.8242    2.1027 H   0  0  0  0  0  0  0  0  0  0  0  0
   -1.0982   -0.8358    2.1826 H   0  0  0  0  0  0  0  0  0  0  0  0
   -0.2663   -1.8858    0.2781 H   0  0  0  0  0  0  0  0  0  0  0  0
   -1.5860   -1.3477   -2.3877 H   0  0  0  0  0  0  0  0  0  0  0  0
   -0.8099   -2.8378   -1.8438 H   0  0  0  0  0  0  0  0  0  0  0  0
   -3.3621   -2.7171   -1.3484 H   0  0  0  0  0  0  0  0  0  0  0  0
   -2.3358   -3.0621    0.0274 H   0  0  0  0  0  0  0  0  0  0  0  0
   -5.9206    0.3491   -0.1863 H   0  0  0  0  0  0  0  0  0  0  0  0
   -6.1208   -0.7319   -1.6006 H   0  0  0  0  0  0  0  0  0  0  0  0
   -5.7472   -1.4478   -0.0431 H   0  0  0  0  0  0  0  0  0  0  0  0
   -3.9748   -1.8362    3.6231 H   0  0  0  0  0  0  0  0  0  0  0  0
   -4.2743   -0.1895    4.1735 H   0  0  0  0  0  0  0  0  0  0  0  0
   -5.5940   -1.1273    3.3779 H   0  0  0  0  0  0  0  0  0  0  0  0
   -2.6040    1.8158   -0.2069 H   0  0  0  0  0  0  0  0  0  0  0  0
   -1.7916    1.1342   -1.6470 H   0  0  0  0  0  0  0  0  0  0  0  0
   -0.8677    1.8836   -0.3631 H   0  0  0  0  0  0  0  0  0  0  0  0
    5.5602    0.4161   -1.8012 H   0  0  0  0  0  0  0  0  0  0  0  0
    4.4650    3.1208    1.1966 H   0  0  0  0  0  0  0  0  0  0  0  0
    5.4306    1.9057    1.9986 H   0  0  0  0  0  0  0  0  0  0  0  0
    2.9043    1.7041    2.1876 H   0  0  0  0  0  0  0  0  0  0  0  0
    3.7684    0.2338    1.7931 H   0  0  0  0  0  0  0  0  0  0  0  0
    1.5489    2.2735   -1.3386 H   0  0  0  0  0  0  0  0  0  0  0  0
    2.9611    3.0659   -0.6689 H   0  0  0  0  0  0  0  0  0  0  0  0
    1.5090    2.9128    0.3006 H   0  0  0  0  0  0  0  0  0  0  0  0
  1  2  1  0
  2  3  2  0
  3  4  1  0
  4  5  1  0
  5  6  1  0
  6  7  1  0
  7  8  1  0
  8  9  1  0
  9 10  1  0
 10 11  1  0
 11 12  1  0
 12 13  1  0
 13 14  2  0
 13 15  1  0
 12 16  1  1
 16 17  1  0
 17 18  2  0
 17 19  1  0
  8 20  1  6
  5 21  1  0
 21 22  1  0
 22 23  2  0
 23 24  1  0
 24 25  2  0
 24 26  1  0
 26 27  1  0
 21 28  1  6
 22  2  1  0
  9  4  1  0
 12  8  1  0
 27 21  1  0
  1 29  1  0
  1 30  1  0
  1 31  1  0
  3 32  1  0
  4 33  1  6
  5 34  1  1
  6 35  1  0
  6 36  1  0
  7 37  1  0
  7 38  1  0
  9 39  1  1
 10 40  1  0
 10 41  1  0
 11 42  1  0
 11 43  1  0
 15 44  1  0
 15 45  1  0
 15 46  1  0
 19 47  1  0
 19 48  1  0
 19 49  1  0
 20 50  1  0
 20 51  1  0
 20 52  1  0
 23 53  1  0
 26 54  1  0
 26 55  1  0
 27 56  1  0
 27 57  1  0
 28 58  1  0
 28 59  1  0
 28 60  1  0
M  END
$$$$
