
     RDKit          3D

 51 54  0  0  0  0  0  0  0  0999 V2000
    2.3606    0.8452   -1.8195 C   0  0  0  0  0  0  0  0  0  0  0  0
    2.3098    0.1446   -0.4429 C   0  0  0  0  0  0  0  0  0  0  0  0
    1.7525    1.1282    0.6071 C   0  0  0  0  0  0  0  0  0  0  0  0
    0.3090    1.5617    0.3475 C   0  0  0  0  0  0  0  0  0  0  0  0
   -0.6222    0.4283   -0.1395 C   0  0  0  0  0  0  0  0  0  0  0  0
   -0.0124   -0.9657    0.1366 C   0  0  0  0  0  0  0  0  0  0  0  0
   -0.9396   -2.0762   -0.3964 C   0  0  0  0  0  0  0  0  0  0  0  0
   -2.3507   -1.9696    0.1600 C   0  0  0  0  0  0  0  0  0  0  0  0
   -2.9454   -0.6073   -0.0957 C   0  0  0  0  0  0  0  0  0  0  0  0
   -4.1605   -0.4985   -0.6618 C   0  0  0  0  0  0  0  0  0  0  0  0
   -4.8397    0.8110   -0.7994 C   0  0  0  0  0  0  0  0  0  0  0  0
   -5.9328    0.8696   -1.3567 O   0  0  0  0  0  0  0  0  0  0  0  0
   -4.1934    2.0135   -0.1622 C   0  0  0  0  0  0  0  0  0  0  0  0
   -2.6782    1.9066   -0.2483 C   0  0  0  0  0  0  0  0  0  0  0  0
   -2.1104    0.5916    0.3624 C   0  0  0  0  0  0  0  0  0  0  0  0
   -2.2137    0.6590    1.9052 C   0  0  0  0  0  0  0  0  0  0  0  0
    1.3949   -1.1244   -0.5076 C   0  0  0  0  0  0  0  0  0  0  0  0
    2.1878   -2.2650    0.1707 C   0  0  0  0  0  0  0  0  0  0  0  0
    3.3616   -1.5976    0.8774 C   0  0  0  0  0  0  0  0  0  0  0  0
    3.7119   -0.4317   -0.0440 C   0  0  0  0  0  0  0  0  0  0  0  0
    4.3392   -1.0278   -1.2035 O   0  0  0  0  0  0  0  0  0  0  0  0
    4.7068    0.6223    0.5076 C   0  0  0  0  0  0  0  0  0  0  0  0
    5.3815    1.2831   -0.2869 O   0  0  0  0  0  0  0  0  0  0  0  0
    4.7779    0.7880    2.2365 Cl  0  0  0  0  0  0  0  0  0  0  0  0
    1.3778    1.2046   -2.1376 H   0  0  0  0  0  0  0  0  0  0  0  0
    3.0348    1.7079   -1.7945 H   0  0  0  0  0  0  0  0  0  0  0  0
    2.7087    0.1715   -2.6098 H   0  0  0  0  0  0  0  0  0  0  0  0
    1.7895    0.6735    1.6047 H   0  0  0  0  0  0  0  0  0  0  0  0
    2.3746    2.0301    0.6594 H   0  0  0  0  0  0  0  0  0  0  0  0
    0.2985    2.3664   -0.3991 H   0  0  0  0  0  0  0  0  0  0  0  0
   -0.0549    2.0264    1.2678 H   0  0  0  0  0  0  0  0  0  0  0  0
   -0.6593    0.5128   -1.2372 H   0  0  0  0  0  0  0  0  0  0  0  0
    0.0827   -1.0911    1.2236 H   0  0  0  0  0  0  0  0  0  0  0  0
   -0.9833   -2.0290   -1.4928 H   0  0  0  0  0  0  0  0  0  0  0  0
   -0.5346   -3.0626   -0.1426 H   0  0  0  0  0  0  0  0  0  0  0  0
   -2.3369   -2.1606    1.2398 H   0  0  0  0  0  0  0  0  0  0  0  0
   -2.9667   -2.7611   -0.2843 H   0  0  0  0  0  0  0  0  0  0  0  0
   -4.7375   -1.3563   -0.9898 H   0  0  0  0  0  0  0  0  0  0  0  0
   -4.5218    2.9101   -0.6993 H   0  0  0  0  0  0  0  0  0  0  0  0
   -4.5370    2.0906    0.8741 H   0  0  0  0  0  0  0  0  0  0  0  0
   -2.2317    2.7829    0.2374 H   0  0  0  0  0  0  0  0  0  0  0  0
   -2.3972    1.9674   -1.3093 H   0  0  0  0  0  0  0  0  0  0  0  0
   -1.8544    1.6137    2.3017 H   0  0  0  0  0  0  0  0  0  0  0  0
   -3.2518    0.5548    2.2434 H   0  0  0  0  0  0  0  0  0  0  0  0
   -1.6386   -0.1355    2.3914 H   0  0  0  0  0  0  0  0  0  0  0  0
    1.2578   -1.4065   -1.5610 H   0  0  0  0  0  0  0  0  0  0  0  0
    1.5964   -2.8611    0.8727 H   0  0  0  0  0  0  0  0  0  0  0  0
    2.5598   -2.9542   -0.5978 H   0  0  0  0  0  0  0  0  0  0  0  0
    4.1912   -2.3024    0.9990 H   0  0  0  0  0  0  0  0  0  0  0  0
    3.0407   -1.2751    1.8728 H   0  0  0  0  0  0  0  0  0  0  0  0
    4.7987   -0.3059   -1.6795 H   0  0  0  0  0  0  0  0  0  0  0  0
  1  2  1  0
  2  3  1  0
  3  4  1  0
  4  5  1  0
  5  6  1  0
  6  7  1  0
  7  8  1  0
  8  9  1  0
  9 10  2  0
 10 11  1  0
 11 12  2  0
 11 13  1  0
 13 14  1  0
 14 15  1  0
 15 16  1  0
  6 17  1  0
 17 18  1  0
 18 19  1  0
 19 20  1  0
 20 21  1  0
 20 22  1  0
 22 23  2  0
 22 24  1  0
 17  2  1  0
 20  2  1  0
 15  5  1  0
 15  9  1  0
  1 25  1  0
  1 26  1  0
  1 27  1  0
  3 28  1  0
  3 29  1  0
  4 30  1  0
  4 31  1  0
  5 32  1  0
  6 33  1  0
  7 34  1  0
  7 35  1  0
  8 36  1  0
  8 37  1  0
 10 38  1  0
 13 39  1  0
 13 40  1  0
 14 41  1  0
 14 42  1  0
 16 43  1  0
 16 44  1  0
 16 45  1  0
 17 46  1  0
 18 47  1  0
 18 48  1  0
 19 49  1  0
 19 50  1  0
 21 51  1  0
M  END
$$$$
