
     RDKit          3D

 40 42  0  0  0  0  0  0  0  0999 V2000
   -3.7416   -0.9600   -1.4450 C   0  0  0  0  0  0  0  0  0  0  0  0
   -2.8357   -0.7004   -0.2395 C   0  0  1  0  0  0  0  0  0  0  0  0
   -1.9518   -1.9443    0.0122 C   0  0  0  0  0  0  0  0  0  0  0  0
   -0.7776   -1.6300    0.9430 C   0  0  0  0  0  0  0  0  0  0  0  0
    0.0803   -0.4356    0.4540 C   0  0  2  0  0  0  0  0  0  0  0  0
   -0.6213    0.2701   -0.7375 C   0  0  0  0  0  0  0  0  0  0  0  0
   -2.0350    0.5170   -0.4314 N   0  0  0  0  0  0  0  0  0  0  0  0
   -2.4147    1.8351   -0.2427 C   0  0  0  0  0  0  0  0  0  0  0  0
   -1.6088    2.7664   -0.3794 O   0  0  0  0  0  0  0  0  0  0  0  0
   -3.7944    2.2663    0.1431 C   0  0  0  0  0  0  0  0  0  0  0  0
   -4.9399    1.6444    0.4412 C   0  0  0  0  0  0  0  0  0  0  0  0
    1.4237   -0.9042    0.0785 N   0  0  0  0  0  0  0  0  0  0  0  0
    2.4274    0.0717    0.0682 C   0  0  0  0  0  0  0  0  0  0  0  0
    2.0983    1.3806    0.0940 N   0  0  0  0  0  0  0  0  0  0  0  0
    3.0711    2.3132    0.0575 C   0  0  0  0  0  0  0  0  0  0  0  0
    4.4009    2.1221    0.0034 N   0  0  0  0  0  0  0  0  0  0  0  0
    4.6930    0.8136   -0.0129 C   0  0  0  0  0  0  0  0  0  0  0  0
    3.8002   -0.2519    0.0215 C   0  0  0  0  0  0  0  0  0  0  0  0
    4.5916   -1.4388   -0.0165 C   0  0  0  0  0  0  0  0  0  0  0  0
    5.9192   -1.0647   -0.0703 C   0  0  0  0  0  0  0  0  0  0  0  0
    5.9624    0.3082   -0.0717 N   0  0  0  0  0  0  0  0  0  0  0  0
   -3.1495   -1.1703   -2.3450 H   0  0  0  0  0  0  0  0  0  0  0  0
   -4.3734   -0.0976   -1.6869 H   0  0  0  0  0  0  0  0  0  0  0  0
   -4.3976   -1.8196   -1.2659 H   0  0  0  0  0  0  0  0  0  0  0  0
   -3.4338   -0.5589    0.6644 H   0  0  0  0  0  0  0  0  0  0  0  0
   -2.5632   -2.7486    0.4387 H   0  0  0  0  0  0  0  0  0  0  0  0
   -1.5550   -2.3339   -0.9321 H   0  0  0  0  0  0  0  0  0  0  0  0
   -0.1762   -2.5363    1.0838 H   0  0  0  0  0  0  0  0  0  0  0  0
   -1.1830   -1.3842    1.9358 H   0  0  0  0  0  0  0  0  0  0  0  0
    0.1513    0.2583    1.3046 H   0  0  0  0  0  0  0  0  0  0  0  0
   -0.1061    1.1966   -1.0064 H   0  0  0  0  0  0  0  0  0  0  0  0
   -0.5793   -0.3520   -1.6421 H   0  0  0  0  0  0  0  0  0  0  0  0
   -3.8245    3.3567    0.1824 H   0  0  0  0  0  0  0  0  0  0  0  0
   -5.0841    0.5785    0.4530 H   0  0  0  0  0  0  0  0  0  0  0  0
   -5.8113    2.2431    0.6975 H   0  0  0  0  0  0  0  0  0  0  0  0
    1.7516   -1.7370    0.5588 H   0  0  0  0  0  0  0  0  0  0  0  0
    2.7375    3.3445    0.0769 H   0  0  0  0  0  0  0  0  0  0  0  0
    4.2274   -2.4609   -0.0107 H   0  0  0  0  0  0  0  0  0  0  0  0
    6.8322   -1.6451   -0.1190 H   0  0  0  0  0  0  0  0  0  0  0  0
    6.7900    0.8878   -0.1209 H   0  0  0  0  0  0  0  0  0  0  0  0
  1  2  1  0
  2  3  1  0
  3  4  1  0
  4  5  1  0
  5  6  1  0
  6  7  1  0
  7  8  1  0
  8  9  2  0
  8 10  1  0
 10 11  2  3
  5 12  1  0
 12 13  1  0
 13 14  2  0
 14 15  1  0
 15 16  2  0
 16 17  1  0
 17 18  2  0
 18 19  1  0
 19 20  2  0
 20 21  1  0
  7  2  1  0
 18 13  1  0
 21 17  1  0
  1 22  1  0
  1 23  1  0
  1 24  1  0
  2 25  1  1
  3 26  1  0
  3 27  1  0
  4 28  1  0
  4 29  1  0
  5 30  1  1
  6 31  1  0
  6 32  1  0
 10 33  1  0
 11 34  1  0
 11 35  1  0
 12 36  1  0
 15 37  1  0
 19 38  1  0
 20 39  1  0
 21 40  1  0
M  END
$$$$
