
     RDKit          3D

107108  0  0  0  0  0  0  0  0999 V2000
    0.1921   -0.1971   -3.3095 C   0  0  0  0  0  0  0  0  0  0  0  0
   -0.8564   -1.1292   -2.7238 C   0  0  0  0  0  0  0  0  0  0  0  0
   -0.4730   -1.8643   -1.4242 C   0  0  0  0  0  0  0  0  0  0  0  0
   -0.0252   -1.0066   -0.2319 C   0  0  0  0  0  0  0  0  0  0  0  0
    1.3971   -0.4405   -0.2934 C   0  0  0  0  0  0  0  0  0  0  0  0
    2.4872   -1.3980   -0.7797 C   0  0  0  0  0  0  0  0  0  0  0  0
    2.7661   -2.5540    0.1892 C   0  0  0  0  0  0  0  0  0  0  0  0
    3.8832   -3.4935   -0.3030 C   0  0  0  0  0  0  0  0  0  0  0  0
    5.2978   -2.9645   -0.3428 C   0  0  0  0  0  0  0  0  0  0  0  0
    5.7100   -1.7627    0.0887 C   0  0  0  0  0  0  0  0  0  0  0  0
    7.1142   -1.2378    0.0199 C   0  0  0  0  0  0  0  0  0  0  0  0
    7.6623   -0.8044    1.3848 C   0  0  0  0  0  0  0  0  0  0  0  0
    6.8382    0.3002    2.0576 C   0  0  0  0  0  0  0  0  0  0  0  0
    7.4497    0.8178    3.3654 C   0  0  0  0  0  0  0  0  0  0  0  0
    8.8485    1.4357    3.2447 C   0  0  0  0  0  0  0  0  0  0  0  0
    8.9034    2.6474    2.3124 C   0  0  0  0  0  0  0  0  0  0  0  0
   10.3265    3.1712    2.1196 C   0  0  0  0  0  0  0  0  0  0  0  0
   10.8990    3.8060    3.3629 C   0  0  0  0  0  0  0  0  0  0  0  0
   10.2928    4.1425    4.3655 O   0  0  0  0  0  0  0  0  0  0  0  0
   12.2234    4.0097    3.2606 O   0  0  0  0  0  0  0  0  0  0  0  0
   -2.0366   -0.3665   -2.4607 O   0  0  0  0  0  0  0  0  0  0  0  0
   -3.1499   -0.7593   -3.2684 C   0  0  1  0  0  0  0  0  0  0  0  0
   -4.4288   -0.5965   -2.4404 C   0  0  1  0  0  0  0  0  0  0  0  0
   -5.5972   -1.1658   -3.2615 C   0  0  2  0  0  0  0  0  0  0  0  0
   -5.3954   -1.0677   -4.7903 C   0  0  1  0  0  0  0  0  0  0  0  0
   -4.3703   -0.0024   -5.2288 C   0  0  2  0  0  0  0  0  0  0  0  0
   -3.1877    0.0862   -4.4145 O   0  0  0  0  0  0  0  0  0  0  0  0
   -4.9982    1.3961   -5.3828 C   0  0  0  0  0  0  0  0  0  0  0  0
   -5.6317    1.8242   -4.1667 O   0  0  0  0  0  0  0  0  0  0  0  0
   -6.4966    2.8654   -4.3222 C   0  0  0  0  0  0  0  0  0  0  0  0
   -6.7601    3.4323   -5.3731 O   0  0  0  0  0  0  0  0  0  0  0  0
   -7.0809    3.2706   -2.9986 C   0  0  0  0  0  0  0  0  0  0  0  0
   -4.8981   -2.3308   -5.2760 O   0  0  0  0  0  0  0  0  0  0  0  0
   -6.8467   -0.5686   -2.9018 O   0  0  0  0  0  0  0  0  0  0  0  0
   -4.3581   -1.3777   -1.2235 O   0  0  0  0  0  0  0  0  0  0  0  0
   -4.7860   -0.6659   -0.0557 C   0  0  1  0  0  0  0  0  0  0  0  0
   -5.7618   -1.5749    0.7087 C   0  0  1  0  0  0  0  0  0  0  0  0
   -6.1602   -0.9592    2.0652 C   0  0  2  0  0  0  0  0  0  0  0  0
   -5.5425    0.4312    2.2810 C   0  0  1  0  0  0  0  0  0  0  0  0
   -4.0348    0.4705    1.8942 C   0  0  2  0  0  0  0  0  0  0  0  0
   -3.6806   -0.3831    0.7914 O   0  0  0  0  0  0  0  0  0  0  0  0
   -3.1304    0.1166    3.0837 C   0  0  0  0  0  0  0  0  0  0  0  0
   -3.3507    1.0977    4.1129 O   0  0  0  0  0  0  0  0  0  0  0  0
   -2.7598    0.8460    5.3080 C   0  0  0  0  0  0  0  0  0  0  0  0
   -2.0451   -0.1127    5.5717 O   0  0  0  0  0  0  0  0  0  0  0  0
   -3.0995    1.9352    6.2881 C   0  0  0  0  0  0  0  0  0  0  0  0
   -6.2399    1.3955    1.4750 O   0  0  0  0  0  0  0  0  0  0  0  0
   -5.7613   -1.8376    3.1247 O   0  0  0  0  0  0  0  0  0  0  0  0
   -6.9393   -1.7854   -0.0989 O   0  0  0  0  0  0  0  0  0  0  0  0
   -0.1251    0.1326   -4.2997 H   0  0  0  0  0  0  0  0  0  0  0  0
    1.1590   -0.6928   -3.4220 H   0  0  0  0  0  0  0  0  0  0  0  0
    0.3000    0.7151   -2.7214 H   0  0  0  0  0  0  0  0  0  0  0  0
   -1.0422   -1.9060   -3.4745 H   0  0  0  0  0  0  0  0  0  0  0  0
   -1.3667   -2.4085   -1.0910 H   0  0  0  0  0  0  0  0  0  0  0  0
    0.2707   -2.6367   -1.6394 H   0  0  0  0  0  0  0  0  0  0  0  0
   -0.1038   -1.6224    0.6716 H   0  0  0  0  0  0  0  0  0  0  0  0
   -0.7289   -0.1783   -0.0866 H   0  0  0  0  0  0  0  0  0  0  0  0
    1.4075    0.4423   -0.9380 H   0  0  0  0  0  0  0  0  0  0  0  0
    1.6616   -0.0665    0.7006 H   0  0  0  0  0  0  0  0  0  0  0  0
    3.3889   -0.8009   -0.9370 H   0  0  0  0  0  0  0  0  0  0  0  0
    2.2436   -1.8031   -1.7658 H   0  0  0  0  0  0  0  0  0  0  0  0
    3.0120   -2.1642    1.1858 H   0  0  0  0  0  0  0  0  0  0  0  0
    1.8541   -3.1483    0.3050 H   0  0  0  0  0  0  0  0  0  0  0  0
    3.8879   -4.3776    0.3447 H   0  0  0  0  0  0  0  0  0  0  0  0
    3.6264   -3.8468   -1.3091 H   0  0  0  0  0  0  0  0  0  0  0  0
    6.0323   -3.6461   -0.7687 H   0  0  0  0  0  0  0  0  0  0  0  0
    4.9850   -1.0721    0.5120 H   0  0  0  0  0  0  0  0  0  0  0  0
    7.7870   -1.9887   -0.4098 H   0  0  0  0  0  0  0  0  0  0  0  0
    7.1291   -0.3796   -0.6628 H   0  0  0  0  0  0  0  0  0  0  0  0
    8.6884   -0.4576    1.2291 H   0  0  0  0  0  0  0  0  0  0  0  0
    7.7202   -1.6718    2.0524 H   0  0  0  0  0  0  0  0  0  0  0  0
    5.8445   -0.0872    2.3062 H   0  0  0  0  0  0  0  0  0  0  0  0
    6.6790    1.1302    1.3593 H   0  0  0  0  0  0  0  0  0  0  0  0
    6.7685    1.5687    3.7922 H   0  0  0  0  0  0  0  0  0  0  0  0
    7.4962   -0.0109    4.0860 H   0  0  0  0  0  0  0  0  0  0  0  0
    9.5636    0.6742    2.9174 H   0  0  0  0  0  0  0  0  0  0  0  0
    9.1655    1.7346    4.2505 H   0  0  0  0  0  0  0  0  0  0  0  0
    8.5189    2.3756    1.3255 H   0  0  0  0  0  0  0  0  0  0  0  0
    8.2532    3.4410    2.7003 H   0  0  0  0  0  0  0  0  0  0  0  0
   10.9806    2.3491    1.8092 H   0  0  0  0  0  0  0  0  0  0  0  0
   10.3247    3.9336    1.3362 H   0  0  0  0  0  0  0  0  0  0  0  0
   12.4757    4.4244    4.1135 H   0  0  0  0  0  0  0  0  0  0  0  0
   -3.0448   -1.8108   -3.5695 H   0  0  0  0  0  0  0  0  0  0  0  0
   -4.5754    0.4658   -2.2114 H   0  0  0  0  0  0  0  0  0  0  0  0
   -5.7204   -2.2266   -3.0013 H   0  0  0  0  0  0  0  0  0  0  0  0
   -6.3469   -0.9065   -5.3076 H   0  0  0  0  0  0  0  0  0  0  0  0
   -3.9947   -0.2670   -6.2251 H   0  0  0  0  0  0  0  0  0  0  0  0
   -5.7322    1.3628   -6.1970 H   0  0  0  0  0  0  0  0  0  0  0  0
   -4.2212    2.1284   -5.6305 H   0  0  0  0  0  0  0  0  0  0  0  0
   -8.1632    3.3923   -3.1070 H   0  0  0  0  0  0  0  0  0  0  0  0
   -6.6262    4.2104   -2.6752 H   0  0  0  0  0  0  0  0  0  0  0  0
   -6.8961    2.5022   -2.2427 H   0  0  0  0  0  0  0  0  0  0  0  0
   -5.5045   -3.0431   -4.9764 H   0  0  0  0  0  0  0  0  0  0  0  0
   -6.8716   -0.4841   -1.9172 H   0  0  0  0  0  0  0  0  0  0  0  0
   -5.2870    0.2611   -0.3580 H   0  0  0  0  0  0  0  0  0  0  0  0
   -5.3099   -2.5623    0.8693 H   0  0  0  0  0  0  0  0  0  0  0  0
   -7.2549   -0.8902    2.1164 H   0  0  0  0  0  0  0  0  0  0  0  0
   -5.6829    0.7558    3.3173 H   0  0  0  0  0  0  0  0  0  0  0  0
   -3.7988    1.4946    1.5832 H   0  0  0  0  0  0  0  0  0  0  0  0
   -3.3488   -0.8907    3.4585 H   0  0  0  0  0  0  0  0  0  0  0  0
   -2.0791    0.1441    2.7745 H   0  0  0  0  0  0  0  0  0  0  0  0
   -3.4505    1.4860    7.2222 H   0  0  0  0  0  0  0  0  0  0  0  0
   -2.2167    2.5570    6.4652 H   0  0  0  0  0  0  0  0  0  0  0  0
   -3.9087    2.5613    5.8953 H   0  0  0  0  0  0  0  0  0  0  0  0
   -7.2062    1.3010    1.6316 H   0  0  0  0  0  0  0  0  0  0  0  0
   -6.3161   -1.6427    3.9031 H   0  0  0  0  0  0  0  0  0  0  0  0
   -6.7091   -2.5283   -0.6930 H   0  0  0  0  0  0  0  0  0  0  0  0
  1  2  1  0
  2  3  1  0
  3  4  1  0
  4  5  1  0
  5  6  1  0
  6  7  1  0
  7  8  1  0
  8  9  1  0
  9 10  2  0
 10 11  1  0
 11 12  1  0
 12 13  1  0
 13 14  1  0
 14 15  1  0
 15 16  1  0
 16 17  1  0
 17 18  1  0
 18 19  2  0
 18 20  1  0
  2 21  1  0
 21 22  1  0
 22 23  1  0
 23 24  1  0
 24 25  1  0
 25 26  1  0
 26 27  1  0
 26 28  1  0
 28 29  1  0
 29 30  1  0
 30 31  2  0
 30 32  1  0
 25 33  1  0
 24 34  1  0
 23 35  1  0
 35 36  1  0
 36 37  1  0
 37 38  1  0
 38 39  1  0
 39 40  1  0
 40 41  1  0
 40 42  1  0
 42 43  1  0
 43 44  1  0
 44 45  2  0
 44 46  1  0
 39 47  1  0
 38 48  1  0
 37 49  1  0
 27 22  1  0
 41 36  1  0
  1 50  1  0
  1 51  1  0
  1 52  1  0
  2 53  1  0
  3 54  1  0
  3 55  1  0
  4 56  1  0
  4 57  1  0
  5 58  1  0
  5 59  1  0
  6 60  1  0
  6 61  1  0
  7 62  1  0
  7 63  1  0
  8 64  1  0
  8 65  1  0
  9 66  1  0
 10 67  1  0
 11 68  1  0
 11 69  1  0
 12 70  1  0
 12 71  1  0
 13 72  1  0
 13 73  1  0
 14 74  1  0
 14 75  1  0
 15 76  1  0
 15 77  1  0
 16 78  1  0
 16 79  1  0
 17 80  1  0
 17 81  1  0
 20 82  1  0
 22 83  1  6
 23 84  1  1
 24 85  1  1
 25 86  1  6
 26 87  1  6
 28 88  1  0
 28 89  1  0
 32 90  1  0
 32 91  1  0
 32 92  1  0
 33 93  1  0
 34 94  1  0
 36 95  1  6
 37 96  1  1
 38 97  1  6
 39 98  1  1
 40 99  1  6
 42100  1  0
 42101  1  0
 46102  1  0
 46103  1  0
 46104  1  0
 47105  1  0
 48106  1  0
 49107  1  0
M  END
$$$$
