
     RDKit          3D

 34 36  0  0  0  0  0  0  0  0999 V2000
   -2.6744    1.6986    0.5085 C   0  0  0  0  0  0  0  0  0  0  0  0
   -1.8751    0.3833    0.5204 C   0  0  2  0  0  0  0  0  0  0  0  0
   -2.6098   -0.7002   -0.2971 C   0  0  0  0  0  0  0  0  0  0  0  0
   -2.9133   -1.8125    0.6925 C   0  0  0  0  0  0  0  0  0  0  0  0
   -1.9141   -1.5907    1.8044 C   0  0  0  0  0  0  0  0  0  0  0  0
   -1.8534   -0.1286    1.9169 N   0  0  0  0  0  0  0  0  0  0  0  0
   -0.4470    0.5606    0.0153 C   0  0  0  0  0  0  0  0  0  0  0  0
    0.4700   -0.3854   -0.1108 N   0  0  0  0  0  0  0  0  0  0  0  0
    1.6212    0.2413   -0.5611 C   0  0  0  0  0  0  0  0  0  0  0  0
    2.9104   -0.2645   -0.8077 C   0  0  0  0  0  0  0  0  0  0  0  0
    3.8944    0.6198   -1.2866 C   0  0  0  0  0  0  0  0  0  0  0  0
    3.6126    1.9704   -1.5047 C   0  0  0  0  0  0  0  0  0  0  0  0
    2.3420    2.4906   -1.2367 C   0  0  0  0  0  0  0  0  0  0  0  0
    1.3803    1.5951   -0.7630 C   0  0  0  0  0  0  0  0  0  0  0  0
    0.0765    1.7728   -0.3820 N   0  0  0  0  0  0  0  0  0  0  0  0
    3.2661   -1.6762   -0.5346 C   0  0  0  0  0  0  0  0  0  0  0  0
    4.4215   -2.0717   -0.6177 O   0  0  0  0  0  0  0  0  0  0  0  0
    2.2595   -2.5181   -0.1543 N   0  0  0  0  0  0  0  0  0  0  0  0
   -2.7445    2.1130   -0.5043 H   0  0  0  0  0  0  0  0  0  0  0  0
   -3.6980    1.5490    0.8721 H   0  0  0  0  0  0  0  0  0  0  0  0
   -2.2093    2.4600    1.1499 H   0  0  0  0  0  0  0  0  0  0  0  0
   -1.9938   -1.0976   -1.1122 H   0  0  0  0  0  0  0  0  0  0  0  0
   -3.5427   -0.3382   -0.7460 H   0  0  0  0  0  0  0  0  0  0  0  0
   -2.8281   -2.8058    0.2408 H   0  0  0  0  0  0  0  0  0  0  0  0
   -3.9393   -1.7017    1.0716 H   0  0  0  0  0  0  0  0  0  0  0  0
   -2.2361   -2.0481    2.7438 H   0  0  0  0  0  0  0  0  0  0  0  0
   -0.9319   -2.0041    1.5485 H   0  0  0  0  0  0  0  0  0  0  0  0
   -2.6937    0.1818    2.3997 H   0  0  0  0  0  0  0  0  0  0  0  0
    4.8996    0.2460   -1.4823 H   0  0  0  0  0  0  0  0  0  0  0  0
    4.3946    2.6300   -1.8773 H   0  0  0  0  0  0  0  0  0  0  0  0
    2.1229    3.5408   -1.3918 H   0  0  0  0  0  0  0  0  0  0  0  0
   -0.4050    2.6604   -0.3688 H   0  0  0  0  0  0  0  0  0  0  0  0
    1.3203   -2.1514    0.0158 H   0  0  0  0  0  0  0  0  0  0  0  0
    2.5178   -3.4186    0.2387 H   0  0  0  0  0  0  0  0  0  0  0  0
  2  1  1  1
  2  3  1  0
  3  4  1  0
  4  5  1  0
  5  6  1  0
  2  7  1  0
  7  8  2  0
  8  9  1  0
  9 10  2  0
 10 11  1  0
 11 12  2  0
 12 13  1  0
 13 14  2  0
 14 15  1  0
 10 16  1  0
 16 17  2  0
 16 18  1  0
  6  2  1  0
 15  7  1  0
 14  9  1  0
  1 19  1  0
  1 20  1  0
  1 21  1  0
  3 22  1  0
  3 23  1  0
  4 24  1  0
  4 25  1  0
  5 26  1  0
  5 27  1  0
  6 28  1  0
 11 29  1  0
 12 30  1  0
 13 31  1  0
 15 32  1  0
 18 33  1  0
 18 34  1  0
M  END
$$$$
