
     RDKit          3D

 59 64  0  0  0  0  0  0  0  0999 V2000
   -2.6882    2.6414   -3.2928 C   0  0  0  0  0  0  0  0  0  0  0  0
   -3.2294    2.5502   -1.8482 C   0  0  0  0  0  0  0  0  0  0  0  0
   -2.5929    3.6992   -1.0382 C   0  0  0  0  0  0  0  0  0  0  0  0
   -4.6990    2.7732   -1.9198 C   0  0  0  0  0  0  0  0  0  0  0  0
   -5.8418    2.9774   -1.9681 N   0  0  0  0  0  0  0  0  0  0  0  0
   -2.9080    1.2185   -1.1440 C   0  0  0  0  0  0  0  0  0  0  0  0
   -2.0333    0.2644   -1.6871 C   0  0  0  0  0  0  0  0  0  0  0  0
   -1.7303   -0.9173   -0.9971 C   0  0  0  0  0  0  0  0  0  0  0  0
   -2.2751   -1.1785    0.2651 C   0  0  0  0  0  0  0  0  0  0  0  0
   -3.1892   -0.2643    0.7887 C   0  0  0  0  0  0  0  0  0  0  0  0
   -3.4873    0.9217    0.1056 C   0  0  0  0  0  0  0  0  0  0  0  0
   -1.9727   -2.3583    0.9747 N   0  0  0  0  0  0  0  0  0  0  0  0
   -0.7312   -3.0478    0.9670 C   0  0  0  0  0  0  0  0  0  0  0  0
    0.5875   -2.6414    0.6990 C   0  0  0  0  0  0  0  0  0  0  0  0
    1.0197   -1.3076    0.4741 C   0  0  0  0  0  0  0  0  0  0  0  0
    2.3523   -0.9855    0.1741 C   0  0  0  0  0  0  0  0  0  0  0  0
    3.2711   -2.0365    0.1432 C   0  0  0  0  0  0  0  0  0  0  0  0
    2.8707   -3.3476    0.4299 C   0  0  0  0  0  0  0  0  0  0  0  0
    1.5562   -3.6706    0.7290 C   0  0  0  0  0  0  0  0  0  0  0  0
    1.2765   -4.9511    1.0599 N   0  0  0  0  0  0  0  0  0  0  0  0
    0.0159   -5.2715    1.4252 C   0  0  0  0  0  0  0  0  0  0  0  0
   -0.9900   -4.3458    1.3991 C   0  0  0  0  0  0  0  0  0  0  0  0
   -2.3369   -4.4563    1.7520 N   0  0  0  0  0  0  0  0  0  0  0  0
   -2.9826   -3.2296    1.4926 C   0  0  0  0  0  0  0  0  0  0  0  0
   -4.1751   -3.0077    1.6412 O   0  0  0  0  0  0  0  0  0  0  0  0
   -2.9769   -5.6519    2.2213 C   0  0  0  0  0  0  0  0  0  0  0  0
    2.7545    0.4044   -0.0910 C   0  0  0  0  0  0  0  0  0  0  0  0
    3.8735    0.9865    0.5120 C   0  0  0  0  0  0  0  0  0  0  0  0
    4.2235    2.3203    0.2449 C   0  0  0  0  0  0  0  0  0  0  0  0
    5.3430    2.9252    0.8434 C   0  0  0  0  0  0  0  0  0  0  0  0
    5.6638    4.2515    0.5603 C   0  0  0  0  0  0  0  0  0  0  0  0
    4.8690    4.9779   -0.3184 C   0  0  0  0  0  0  0  0  0  0  0  0
    3.7569    4.3735   -0.9116 C   0  0  0  0  0  0  0  0  0  0  0  0
    3.4149    3.0539   -0.6474 C   0  0  0  0  0  0  0  0  0  0  0  0
    2.3362    2.5182   -1.2405 N   0  0  0  0  0  0  0  0  0  0  0  0
    2.0359    1.2273   -0.9557 C   0  0  0  0  0  0  0  0  0  0  0  0
   -2.9730    3.5903   -3.7652 H   0  0  0  0  0  0  0  0  0  0  0  0
   -1.5942    2.5850   -3.3224 H   0  0  0  0  0  0  0  0  0  0  0  0
   -3.0885    1.8384   -3.9239 H   0  0  0  0  0  0  0  0  0  0  0  0
   -1.5081    3.5694   -0.9460 H   0  0  0  0  0  0  0  0  0  0  0  0
   -3.0042    3.7632   -0.0232 H   0  0  0  0  0  0  0  0  0  0  0  0
   -2.7727    4.6695   -1.5165 H   0  0  0  0  0  0  0  0  0  0  0  0
   -1.5672    0.4062   -2.6589 H   0  0  0  0  0  0  0  0  0  0  0  0
   -1.0804   -1.6428   -1.4815 H   0  0  0  0  0  0  0  0  0  0  0  0
   -3.6665   -0.4488    1.7491 H   0  0  0  0  0  0  0  0  0  0  0  0
   -4.1903    1.6114    0.5722 H   0  0  0  0  0  0  0  0  0  0  0  0
    0.3068   -0.4923    0.5774 H   0  0  0  0  0  0  0  0  0  0  0  0
    4.3171   -1.8519   -0.0946 H   0  0  0  0  0  0  0  0  0  0  0  0
    3.6169   -4.1398    0.4296 H   0  0  0  0  0  0  0  0  0  0  0  0
   -0.1394   -6.2990    1.7311 H   0  0  0  0  0  0  0  0  0  0  0  0
   -2.9061   -6.4247    1.4499 H   0  0  0  0  0  0  0  0  0  0  0  0
   -2.4809   -5.9939    3.1348 H   0  0  0  0  0  0  0  0  0  0  0  0
   -4.0317   -5.4613    2.4374 H   0  0  0  0  0  0  0  0  0  0  0  0
    4.4731    0.4058    1.2092 H   0  0  0  0  0  0  0  0  0  0  0  0
    5.9701    2.3660    1.5340 H   0  0  0  0  0  0  0  0  0  0  0  0
    6.5300    4.7154    1.0249 H   0  0  0  0  0  0  0  0  0  0  0  0
    5.1094    6.0135   -0.5457 H   0  0  0  0  0  0  0  0  0  0  0  0
    3.1399    4.9474   -1.5983 H   0  0  0  0  0  0  0  0  0  0  0  0
    1.1585    0.8569   -1.4789 H   0  0  0  0  0  0  0  0  0  0  0  0
  1  2  1  0
  2  3  1  0
  2  4  1  0
  4  5  3  0
  2  6  1  0
  6  7  2  0
  7  8  1  0
  8  9  2  0
  9 10  1  0
 10 11  2  0
  9 12  1  0
 12 13  1  0
 13 14  1  0
 14 15  2  0
 15 16  1  0
 16 17  2  0
 17 18  1  0
 18 19  2  0
 19 20  1  0
 20 21  2  0
 21 22  1  0
 22 23  1  0
 23 24  1  0
 24 25  2  0
 23 26  1  0
 16 27  1  0
 27 28  2  0
 28 29  1  0
 29 30  2  0
 30 31  1  0
 31 32  2  0
 32 33  1  0
 33 34  2  0
 34 35  1  0
 35 36  2  0
 11  6  1  0
 24 12  1  0
 22 13  2  0
 19 14  1  0
 36 27  1  0
 34 29  1  0
  1 37  1  0
  1 38  1  0
  1 39  1  0
  3 40  1  0
  3 41  1  0
  3 42  1  0
  7 43  1  0
  8 44  1  0
 10 45  1  0
 11 46  1  0
 15 47  1  0
 17 48  1  0
 18 49  1  0
 21 50  1  0
 26 51  1  0
 26 52  1  0
 26 53  1  0
 28 54  1  0
 30 55  1  0
 31 56  1  0
 32 57  1  0
 33 58  1  0
 36 59  1  0
M  END
$$$$
