
     RDKit          3D

 19 18  0  0  0  0  0  0  0  0999 V2000
    2.9374   -0.2706   -0.4296 C   0  0  0  0  0  0  0  0  0  0  0  0
    1.5015   -0.0184   -0.8010 C   0  0  0  0  0  0  0  0  0  0  0  0
    1.1783    0.4195   -1.9023 O   0  0  0  0  0  0  0  0  0  0  0  0
    0.5953   -0.3210    0.1896 N   0  0  0  0  0  0  0  0  0  0  0  0
   -0.8133    0.0625    0.0379 C   0  0  1  0  0  0  0  0  0  0  0  0
   -1.7658   -0.8784    0.7795 C   0  0  0  0  0  0  0  0  0  0  0  0
   -1.7245   -2.5817    0.1292 S   0  0  0  0  0  0  0  0  0  0  0  0
   -0.9821    1.4593    0.6311 C   0  0  0  0  0  0  0  0  0  0  0  0
   -0.2930    1.9616    1.5071 O   0  0  0  0  0  0  0  0  0  0  0  0
   -2.0448    2.1197    0.1313 O   0  0  0  0  0  0  0  0  0  0  0  0
    3.0287   -0.7198    0.5628 H   0  0  0  0  0  0  0  0  0  0  0  0
    3.4762    0.6788   -0.4317 H   0  0  0  0  0  0  0  0  0  0  0  0
    3.3822   -0.9530   -1.1599 H   0  0  0  0  0  0  0  0  0  0  0  0
    0.9491   -0.3514    1.1374 H   0  0  0  0  0  0  0  0  0  0  0  0
   -1.0599    0.1088   -1.0291 H   0  0  0  0  0  0  0  0  0  0  0  0
   -1.5134   -0.9238    1.8454 H   0  0  0  0  0  0  0  0  0  0  0  0
   -2.7967   -0.5183    0.7050 H   0  0  0  0  0  0  0  0  0  0  0  0
   -2.0342   -2.2739   -1.1393 H   0  0  0  0  0  0  0  0  0  0  0  0
   -2.0211    2.9999    0.5662 H   0  0  0  0  0  0  0  0  0  0  0  0
  1  2  1  0
  2  3  2  0
  2  4  1  0
  4  5  1  0
  5  6  1  0
  6  7  1  0
  5  8  1  0
  8  9  2  0
  8 10  1  0
  1 11  1  0
  1 12  1  0
  1 13  1  0
  4 14  1  0
  5 15  1  6
  6 16  1  0
  6 17  1  0
  7 18  1  0
 10 19  1  0
M  END
$$$$
