
     RDKit          3D

104110  0  0  0  0  0  0  0  0999 V2000
   -9.0293   -2.3862   -1.8923 C   0  0  0  0  0  0  0  0  0  0  0  0
   -9.1469   -1.4978   -0.6873 C   0  0  0  0  0  0  0  0  0  0  0  0
  -10.0460   -1.7369    0.3447 C   0  0  0  0  0  0  0  0  0  0  0  0
   -9.8736   -0.6163    1.6153 S   0  0  0  0  0  0  0  0  0  0  0  0
   -8.6166    0.1905    0.8290 C   0  0  0  0  0  0  0  0  0  0  0  0
   -8.3605   -0.2856   -0.4484 C   0  0  0  0  0  0  0  0  0  0  0  0
   -7.4668    0.3791   -1.4089 C   0  0  0  0  0  0  0  0  0  0  0  0
   -6.3020    0.8404   -1.1047 N   0  0  0  0  0  0  0  0  0  0  0  0
   -5.7750    0.7428    0.2570 C   0  0  2  0  0  0  0  0  0  0  0  0
   -6.6154    1.5621    1.1857 C   0  0  0  0  0  0  0  0  0  0  0  0
   -6.2370    2.6037    1.8984 N   0  0  0  0  0  0  0  0  0  0  0  0
   -7.2607    2.9195    2.7442 N   0  0  0  0  0  0  0  0  0  0  0  0
   -8.2521    2.0685    2.5275 C   0  0  0  0  0  0  0  0  0  0  0  0
   -7.9202    1.2159    1.4827 N   0  0  0  0  0  0  0  0  0  0  0  0
   -9.5342    2.1157    3.2767 C   0  0  0  0  0  0  0  0  0  0  0  0
   -4.3242    1.2462    0.2094 C   0  0  0  0  0  0  0  0  0  0  0  0
   -3.5962    0.9792    1.5103 C   0  0  0  0  0  0  0  0  0  0  0  0
   -3.8857    0.0573    2.2681 O   0  0  0  0  0  0  0  0  0  0  0  0
   -2.5293    1.8332    1.7121 N   0  0  0  0  0  0  0  0  0  0  0  0
   -1.8159    1.8318    2.9674 C   0  0  0  0  0  0  0  0  0  0  0  0
   -0.4560    2.5299    2.8651 C   0  0  0  0  0  0  0  0  0  0  0  0
    0.5083    1.9300    1.8340 C   0  0  0  0  0  0  0  0  0  0  0  0
    0.7585    0.4325    2.0254 C   0  0  0  0  0  0  0  0  0  0  0  0
    1.7962   -0.1266    1.0492 C   0  0  0  0  0  0  0  0  0  0  0  0
    3.2263    0.3831    1.2538 C   0  0  0  0  0  0  0  0  0  0  0  0
    3.8462    0.0888    2.6265 C   0  0  0  0  0  0  0  0  0  0  0  0
    3.8571   -1.3858    3.0239 C   0  0  0  0  0  0  0  0  0  0  0  0
    4.5923   -2.2023    2.0877 N   0  0  0  0  0  0  0  0  0  0  0  0
    4.9000   -3.5184    2.3428 C   0  0  0  0  0  0  0  0  0  0  0  0
    4.4799   -4.1341    3.3233 O   0  0  0  0  0  0  0  0  0  0  0  0
    5.8418   -4.1622    1.3065 C   0  0  0  0  0  0  0  0  0  0  0  0
    6.5530   -3.2712    0.4530 O   0  0  0  0  0  0  0  0  0  0  0  0
    7.5324   -2.4876    0.9794 C   0  0  0  0  0  0  0  0  0  0  0  0
    7.8845   -2.4123    2.3387 C   0  0  0  0  0  0  0  0  0  0  0  0
    8.8632   -1.5043    2.8003 C   0  0  0  0  0  0  0  0  0  0  0  0
    9.5278   -0.6609    1.9141 C   0  0  0  0  0  0  0  0  0  0  0  0
    9.1822   -0.7681    0.5785 C   0  0  0  0  0  0  0  0  0  0  0  0
    8.2184   -1.6501    0.1108 C   0  0  0  0  0  0  0  0  0  0  0  0
    8.1468   -1.4715   -1.3468 C   0  0  0  0  0  0  0  0  0  0  0  0
    7.4127   -2.0885   -2.0987 O   0  0  0  0  0  0  0  0  0  0  0  0
    9.0738   -0.5202   -1.6772 N   0  0  0  0  0  0  0  0  0  0  0  0
    9.7143   -0.0432   -0.5639 C   0  0  0  0  0  0  0  0  0  0  0  0
   10.5704    0.8207   -0.4990 O   0  0  0  0  0  0  0  0  0  0  0  0
    9.3350   -0.0275   -3.0269 C   0  0  0  0  0  0  0  0  0  0  0  0
   10.7984   -0.2521   -3.4402 C   0  0  0  0  0  0  0  0  0  0  0  0
   11.3496    0.8272   -4.3553 C   0  0  0  0  0  0  0  0  0  0  0  0
   11.0566    2.1961   -3.8031 C   0  0  0  0  0  0  0  0  0  0  0  0
   11.8892    3.1078   -3.7928 O   0  0  0  0  0  0  0  0  0  0  0  0
    9.7804    2.3937   -3.3581 N   0  0  0  0  0  0  0  0  0  0  0  0
    8.8592    1.4304   -3.0524 C   0  0  0  0  0  0  0  0  0  0  0  0
    7.6990    1.7584   -2.7742 O   0  0  0  0  0  0  0  0  0  0  0  0
   -7.9481    0.5962   -2.8105 C   0  0  0  0  0  0  0  0  0  0  0  0
   -7.0051    0.6948   -3.8495 C   0  0  0  0  0  0  0  0  0  0  0  0
   -7.4219    0.9314   -5.1635 C   0  0  0  0  0  0  0  0  0  0  0  0
   -8.7811    1.0812   -5.4438 C   0  0  0  0  0  0  0  0  0  0  0  0
   -9.7258    1.0088   -4.4194 C   0  0  0  0  0  0  0  0  0  0  0  0
   -9.3105    0.7703   -3.1049 C   0  0  0  0  0  0  0  0  0  0  0  0
   -9.2910    1.3644   -7.0552 Cl  0  0  0  0  0  0  0  0  0  0  0  0
  -11.0801   -2.8200    0.4422 C   0  0  0  0  0  0  0  0  0  0  0  0
   -8.0784   -2.2273   -2.4145 H   0  0  0  0  0  0  0  0  0  0  0  0
   -9.8541   -2.1893   -2.5881 H   0  0  0  0  0  0  0  0  0  0  0  0
   -9.0661   -3.4361   -1.5984 H   0  0  0  0  0  0  0  0  0  0  0  0
   -5.7680   -0.3067    0.5852 H   0  0  0  0  0  0  0  0  0  0  0  0
   -9.5643    3.0073    3.9134 H   0  0  0  0  0  0  0  0  0  0  0  0
  -10.3928    2.1643    2.6027 H   0  0  0  0  0  0  0  0  0  0  0  0
   -9.6196    1.2473    3.9348 H   0  0  0  0  0  0  0  0  0  0  0  0
   -4.2923    2.3164   -0.0313 H   0  0  0  0  0  0  0  0  0  0  0  0
   -3.7726    0.7245   -0.5801 H   0  0  0  0  0  0  0  0  0  0  0  0
   -2.5619    2.7138    1.2049 H   0  0  0  0  0  0  0  0  0  0  0  0
   -2.4414    2.3599    3.6922 H   0  0  0  0  0  0  0  0  0  0  0  0
   -1.7049    0.8048    3.3332 H   0  0  0  0  0  0  0  0  0  0  0  0
   -0.6150    3.5837    2.6026 H   0  0  0  0  0  0  0  0  0  0  0  0
    0.0213    2.5227    3.8504 H   0  0  0  0  0  0  0  0  0  0  0  0
    1.4488    2.4894    1.9043 H   0  0  0  0  0  0  0  0  0  0  0  0
    0.1221    2.1010    0.8221 H   0  0  0  0  0  0  0  0  0  0  0  0
    1.0496    0.2287    3.0633 H   0  0  0  0  0  0  0  0  0  0  0  0
   -0.1749   -0.1124    1.8540 H   0  0  0  0  0  0  0  0  0  0  0  0
    1.7801   -1.2209    1.1107 H   0  0  0  0  0  0  0  0  0  0  0  0
    1.4889    0.1130    0.0241 H   0  0  0  0  0  0  0  0  0  0  0  0
    3.2655    1.4657    1.0831 H   0  0  0  0  0  0  0  0  0  0  0  0
    3.8569   -0.0559    0.4699 H   0  0  0  0  0  0  0  0  0  0  0  0
    4.8785    0.4576    2.6143 H   0  0  0  0  0  0  0  0  0  0  0  0
    3.3277    0.6646    3.4020 H   0  0  0  0  0  0  0  0  0  0  0  0
    2.8432   -1.7965    3.1161 H   0  0  0  0  0  0  0  0  0  0  0  0
    4.3292   -1.4929    4.0083 H   0  0  0  0  0  0  0  0  0  0  0  0
    4.9439   -1.8039    1.2236 H   0  0  0  0  0  0  0  0  0  0  0  0
    6.5429   -4.8336    1.8180 H   0  0  0  0  0  0  0  0  0  0  0  0
    5.2086   -4.7862    0.6647 H   0  0  0  0  0  0  0  0  0  0  0  0
    7.4057   -3.0414    3.0905 H   0  0  0  0  0  0  0  0  0  0  0  0
    9.0943   -1.4706    3.8651 H   0  0  0  0  0  0  0  0  0  0  0  0
   10.2862    0.0357    2.2495 H   0  0  0  0  0  0  0  0  0  0  0  0
    8.6956   -0.5644   -3.7399 H   0  0  0  0  0  0  0  0  0  0  0  0
   10.8778   -1.2242   -3.9382 H   0  0  0  0  0  0  0  0  0  0  0  0
   11.4542   -0.3192   -2.5636 H   0  0  0  0  0  0  0  0  0  0  0  0
   10.9031    0.7586   -5.3509 H   0  0  0  0  0  0  0  0  0  0  0  0
   12.4321    0.7000   -4.4499 H   0  0  0  0  0  0  0  0  0  0  0  0
    9.5219    3.3442   -3.1403 H   0  0  0  0  0  0  0  0  0  0  0  0
   -5.9412    0.5913   -3.6401 H   0  0  0  0  0  0  0  0  0  0  0  0
   -6.6797    1.0087   -5.9533 H   0  0  0  0  0  0  0  0  0  0  0  0
  -10.7818    1.1505   -4.6370 H   0  0  0  0  0  0  0  0  0  0  0  0
  -10.0610    0.7371   -2.3211 H   0  0  0  0  0  0  0  0  0  0  0  0
  -10.6109   -3.8067    0.3732 H   0  0  0  0  0  0  0  0  0  0  0  0
  -11.6444   -2.7800    1.3740 H   0  0  0  0  0  0  0  0  0  0  0  0
  -11.7989   -2.7244   -0.3856 H   0  0  0  0  0  0  0  0  0  0  0  0
  1  2  1  0
  2  3  2  0
  3  4  1  0
  4  5  1  0
  5  6  2  0
  6  7  1  0
  7  8  2  0
  8  9  1  0
  9 10  1  0
 10 11  2  0
 11 12  1  0
 12 13  2  0
 13 14  1  0
 13 15  1  0
  9 16  1  0
 16 17  1  0
 17 18  2  0
 17 19  1  0
 19 20  1  0
 20 21  1  0
 21 22  1  0
 22 23  1  0
 23 24  1  0
 24 25  1  0
 25 26  1  0
 26 27  1  0
 27 28  1  0
 28 29  1  0
 29 30  2  0
 29 31  1  0
 31 32  1  0
 32 33  1  0
 33 34  2  0
 34 35  1  0
 35 36  2  0
 36 37  1  0
 37 38  2  0
 38 39  1  0
 39 40  2  0
 39 41  1  0
 41 42  1  0
 42 43  2  0
 41 44  1  0
 44 45  1  0
 45 46  1  0
 46 47  1  0
 47 48  2  0
 47 49  1  0
 49 50  1  0
 50 51  2  0
  7 52  1  0
 52 53  2  0
 53 54  1  0
 54 55  2  0
 55 56  1  0
 56 57  2  0
 55 58  1  0
  3 59  1  0
  6  2  1  0
 14  5  1  0
 14 10  1  0
 38 33  1  0
 42 37  1  0
 50 44  1  0
 57 52  1  0
  1 60  1  0
  1 61  1  0
  1 62  1  0
  9 63  1  1
 15 64  1  0
 15 65  1  0
 15 66  1  0
 16 67  1  0
 16 68  1  0
 19 69  1  0
 20 70  1  0
 20 71  1  0
 21 72  1  0
 21 73  1  0
 22 74  1  0
 22 75  1  0
 23 76  1  0
 23 77  1  0
 24 78  1  0
 24 79  1  0
 25 80  1  0
 25 81  1  0
 26 82  1  0
 26 83  1  0
 27 84  1  0
 27 85  1  0
 28 86  1  0
 31 87  1  0
 31 88  1  0
 34 89  1  0
 35 90  1  0
 36 91  1  0
 44 92  1  0
 45 93  1  0
 45 94  1  0
 46 95  1  0
 46 96  1  0
 49 97  1  0
 53 98  1  0
 54 99  1  0
 56100  1  0
 57101  1  0
 59102  1  0
 59103  1  0
 59104  1  0
M  END
$$$$
