
     RDKit          3D

 64 65  0  0  0  0  0  0  0  0999 V2000
   -7.9488    1.2359   -0.2290 C   0  0  0  0  0  0  0  0  0  0  0  0
   -6.6169    1.4117    0.3586 N   0  0  0  0  0  0  0  0  0  0  0  0
   -6.5965    2.2199    1.5792 C   0  0  0  0  0  0  0  0  0  0  0  0
   -5.9499    0.1611    0.4849 C   0  0  0  0  0  0  0  0  0  0  0  0
   -6.2825   -0.7286    1.5164 C   0  0  0  0  0  0  0  0  0  0  0  0
   -5.6529   -1.9592    1.6188 C   0  0  0  0  0  0  0  0  0  0  0  0
   -4.6770   -2.3189    0.6913 C   0  0  0  0  0  0  0  0  0  0  0  0
   -4.2906   -1.4643   -0.3726 C   0  0  0  0  0  0  0  0  0  0  0  0
   -4.9536   -0.2076   -0.4690 C   0  0  0  0  0  0  0  0  0  0  0  0
   -4.6025    0.6676   -1.5219 C   0  0  0  0  0  0  0  0  0  0  0  0
   -3.6376    0.3439   -2.4709 C   0  0  0  0  0  0  0  0  0  0  0  0
   -2.9802   -0.8719   -2.3848 C   0  0  0  0  0  0  0  0  0  0  0  0
   -3.2906   -1.7649   -1.3470 C   0  0  0  0  0  0  0  0  0  0  0  0
   -2.3467   -3.2812   -1.3003 S   0  0  0  0  0  6  0  0  0  0  0  0
   -1.4190   -3.2780   -2.4116 O   0  0  0  0  0  0  0  0  0  0  0  0
   -3.2540   -4.3868   -1.0911 O   0  0  0  0  0  0  0  0  0  0  0  0
   -1.4331   -3.1172    0.1012 N   0  0  0  0  0  0  0  0  0  0  0  0
   -0.5424   -1.9634    0.2453 C   0  0  0  0  0  0  0  0  0  0  0  0
    0.5068   -2.2844    1.3089 C   0  0  0  0  0  0  0  0  0  0  0  0
    1.4264   -1.1038    1.6312 C   0  0  0  0  0  0  0  0  0  0  0  0
    2.3412   -0.7105    0.4688 C   0  0  0  0  0  0  0  0  0  0  0  0
    3.3144    0.3958    0.8828 C   0  0  0  0  0  0  0  0  0  0  0  0
    4.2388    0.7892   -0.2716 C   0  0  0  0  0  0  0  0  0  0  0  0
    5.2133    1.8903    0.1531 C   0  0  0  0  0  0  0  0  0  0  0  0
    6.0981    2.3982   -0.9888 C   0  0  0  0  0  0  0  0  0  0  0  0
    6.9813    1.3492   -1.6755 C   0  0  0  0  0  0  0  0  0  0  0  0
    7.9180    0.5792   -0.7460 C   0  0  0  0  0  0  0  0  0  0  0  0
    8.9715    1.4512   -0.1181 C   0  0  0  0  0  0  0  0  0  0  0  0
    9.3637    2.5376   -0.5050 O   0  0  0  0  0  0  0  0  0  0  0  0
    9.5174    0.8759    0.9703 O   0  0  0  0  0  0  0  0  0  0  0  0
   -8.3912    2.2149   -0.4410 H   0  0  0  0  0  0  0  0  0  0  0  0
   -8.6249    0.6993    0.4449 H   0  0  0  0  0  0  0  0  0  0  0  0
   -7.8957    0.6949   -1.1801 H   0  0  0  0  0  0  0  0  0  0  0  0
   -5.5813    2.2969    1.9842 H   0  0  0  0  0  0  0  0  0  0  0  0
   -6.9274    3.2378    1.3479 H   0  0  0  0  0  0  0  0  0  0  0  0
   -7.2613    1.8227    2.3538 H   0  0  0  0  0  0  0  0  0  0  0  0
   -7.0552   -0.4761    2.2365 H   0  0  0  0  0  0  0  0  0  0  0  0
   -5.9298   -2.6491    2.4119 H   0  0  0  0  0  0  0  0  0  0  0  0
   -4.2412   -3.3065    0.8146 H   0  0  0  0  0  0  0  0  0  0  0  0
   -5.0992    1.6340   -1.6065 H   0  0  0  0  0  0  0  0  0  0  0  0
   -3.4028    1.0434   -3.2691 H   0  0  0  0  0  0  0  0  0  0  0  0
   -2.2233   -1.1138   -3.1284 H   0  0  0  0  0  0  0  0  0  0  0  0
   -1.8788   -3.4958    0.9337 H   0  0  0  0  0  0  0  0  0  0  0  0
   -0.0561   -1.7398   -0.7086 H   0  0  0  0  0  0  0  0  0  0  0  0
   -1.1281   -1.0924    0.5573 H   0  0  0  0  0  0  0  0  0  0  0  0
    1.1064   -3.1475    0.9930 H   0  0  0  0  0  0  0  0  0  0  0  0
   -0.0016   -2.5869    2.2339 H   0  0  0  0  0  0  0  0  0  0  0  0
    2.0445   -1.3801    2.4945 H   0  0  0  0  0  0  0  0  0  0  0  0
    0.8244   -0.2397    1.9381 H   0  0  0  0  0  0  0  0  0  0  0  0
    2.9055   -1.5881    0.1320 H   0  0  0  0  0  0  0  0  0  0  0  0
    1.7435   -0.3616   -0.3804 H   0  0  0  0  0  0  0  0  0  0  0  0
    2.7497    1.2739    1.2166 H   0  0  0  0  0  0  0  0  0  0  0  0
    3.9159    0.0553    1.7335 H   0  0  0  0  0  0  0  0  0  0  0  0
    3.6388    1.1340   -1.1222 H   0  0  0  0  0  0  0  0  0  0  0  0
    4.7934   -0.0959   -0.6029 H   0  0  0  0  0  0  0  0  0  0  0  0
    5.8363    1.5373    0.9838 H   0  0  0  0  0  0  0  0  0  0  0  0
    4.6428    2.7444    0.5415 H   0  0  0  0  0  0  0  0  0  0  0  0
    6.7299    3.2059   -0.6011 H   0  0  0  0  0  0  0  0  0  0  0  0
    5.4568    2.8566   -1.7517 H   0  0  0  0  0  0  0  0  0  0  0  0
    7.5742    1.8553   -2.4481 H   0  0  0  0  0  0  0  0  0  0  0  0
    6.3436    0.6314   -2.2046 H   0  0  0  0  0  0  0  0  0  0  0  0
    7.3457    0.0781    0.0412 H   0  0  0  0  0  0  0  0  0  0  0  0
    8.4397   -0.1933   -1.3229 H   0  0  0  0  0  0  0  0  0  0  0  0
   10.1904    1.5236    1.2671 H   0  0  0  0  0  0  0  0  0  0  0  0
  1  2  1  0
  2  3  1  0
  2  4  1  0
  4  5  2  0
  5  6  1  0
  6  7  2  0
  7  8  1  0
  8  9  2  0
  9 10  1  0
 10 11  2  0
 11 12  1  0
 12 13  2  0
 13 14  1  0
 14 15  2  0
 14 16  2  0
 14 17  1  0
 17 18  1  0
 18 19  1  0
 19 20  1  0
 20 21  1  0
 21 22  1  0
 22 23  1  0
 23 24  1  0
 24 25  1  0
 25 26  1  0
 26 27  1  0
 27 28  1  0
 28 29  2  0
 28 30  1  0
  9  4  1  0
 13  8  1  0
  1 31  1  0
  1 32  1  0
  1 33  1  0
  3 34  1  0
  3 35  1  0
  3 36  1  0
  5 37  1  0
  6 38  1  0
  7 39  1  0
 10 40  1  0
 11 41  1  0
 12 42  1  0
 17 43  1  0
 18 44  1  0
 18 45  1  0
 19 46  1  0
 19 47  1  0
 20 48  1  0
 20 49  1  0
 21 50  1  0
 21 51  1  0
 22 52  1  0
 22 53  1  0
 23 54  1  0
 23 55  1  0
 24 56  1  0
 24 57  1  0
 25 58  1  0
 25 59  1  0
 26 60  1  0
 26 61  1  0
 27 62  1  0
 27 63  1  0
 30 64  1  0
M  END
$$$$
