
     RDKit          3D

 61 60  0  0  0  0  0  0  0  0999 V2000
   -7.6339    0.8228    2.7524 C   0  0  0  0  0  0  0  0  0  0  0  0
   -6.6786   -0.2647    2.2763 C   0  0  0  0  0  0  0  0  0  0  0  0
   -6.6862   -0.4490    0.7568 C   0  0  0  0  0  0  0  0  0  0  0  0
   -6.1588    0.7386   -0.0560 C   0  0  0  0  0  0  0  0  0  0  0  0
   -4.7257    1.1790    0.2762 C   0  0  0  0  0  0  0  0  0  0  0  0
   -3.6454    0.0940    0.1678 C   0  0  0  0  0  0  0  0  0  0  0  0
   -3.5163   -0.5008   -1.2351 C   0  0  0  0  0  0  0  0  0  0  0  0
   -2.3716   -1.5125   -1.3734 C   0  0  0  0  0  0  0  0  0  0  0  0
   -0.9728   -1.0145   -0.9908 C   0  0  0  0  0  0  0  0  0  0  0  0
   -0.5000    0.1842   -1.8191 C   0  0  0  0  0  0  0  0  0  0  0  0
    0.7589    0.8715   -1.2693 C   0  0  0  0  0  0  0  0  0  0  0  0
    2.1043    0.2436   -1.6649 C   0  0  0  0  0  0  0  0  0  0  0  0
    2.4903   -0.9741   -0.8289 C   0  0  0  0  0  0  0  0  0  0  0  0
    3.8822   -1.5517   -1.1298 C   0  0  0  0  0  0  0  0  0  0  0  0
    5.0957   -0.6411   -0.8325 C   0  0  2  0  0  0  0  0  0  0  0  0
    5.0955   -0.0077    0.5887 C   0  0  2  0  0  0  0  0  0  0  0  0
    6.5084    0.5344    1.0105 C   0  0  2  0  0  0  0  0  0  0  0  0
    6.5214    0.9203    2.5144 C   0  0  0  0  0  0  0  0  0  0  0  0
    6.6874   -0.2431    3.3224 O   0  0  0  0  0  0  0  0  0  0  0  0
    7.0006    1.6363    0.1831 N   0  0  0  0  0  0  0  0  0  0  0  0
    4.6028   -0.9535    1.5545 O   0  0  0  0  0  0  0  0  0  0  0  0
    5.1925    0.3614   -1.8431 O   0  0  0  0  0  0  0  0  0  0  0  0
   -8.6650    0.5952    2.4504 H   0  0  0  0  0  0  0  0  0  0  0  0
   -7.3659    1.8062    2.3427 H   0  0  0  0  0  0  0  0  0  0  0  0
   -7.6163    0.8855    3.8475 H   0  0  0  0  0  0  0  0  0  0  0  0
   -5.6711   -0.0355    2.6305 H   0  0  0  0  0  0  0  0  0  0  0  0
   -6.9691   -1.2114    2.7436 H   0  0  0  0  0  0  0  0  0  0  0  0
   -6.1023   -1.3423    0.5103 H   0  0  0  0  0  0  0  0  0  0  0  0
   -7.7127   -0.6579    0.4247 H   0  0  0  0  0  0  0  0  0  0  0  0
   -6.8170    1.6015    0.0824 H   0  0  0  0  0  0  0  0  0  0  0  0
   -6.2176    0.4889   -1.1184 H   0  0  0  0  0  0  0  0  0  0  0  0
   -4.6995    1.5913    1.2925 H   0  0  0  0  0  0  0  0  0  0  0  0
   -4.4521    2.0067   -0.3931 H   0  0  0  0  0  0  0  0  0  0  0  0
   -3.8442   -0.6995    0.8913 H   0  0  0  0  0  0  0  0  0  0  0  0
   -2.6960    0.5561    0.4605 H   0  0  0  0  0  0  0  0  0  0  0  0
   -3.3912    0.3033   -1.9713 H   0  0  0  0  0  0  0  0  0  0  0  0
   -4.4453   -1.0123   -1.4983 H   0  0  0  0  0  0  0  0  0  0  0  0
   -2.6067   -2.3901   -0.7612 H   0  0  0  0  0  0  0  0  0  0  0  0
   -2.3521   -1.8614   -2.4151 H   0  0  0  0  0  0  0  0  0  0  0  0
   -0.9397   -0.7705    0.0744 H   0  0  0  0  0  0  0  0  0  0  0  0
   -0.2906   -1.8533   -1.1417 H   0  0  0  0  0  0  0  0  0  0  0  0
   -0.3432   -0.1161   -2.8601 H   0  0  0  0  0  0  0  0  0  0  0  0
   -1.2893    0.9453   -1.8274 H   0  0  0  0  0  0  0  0  0  0  0  0
    0.7628    1.8909   -1.6727 H   0  0  0  0  0  0  0  0  0  0  0  0
    0.6937    0.9838   -0.1784 H   0  0  0  0  0  0  0  0  0  0  0  0
    2.8581    1.0233   -1.5288 H   0  0  0  0  0  0  0  0  0  0  0  0
    2.1034   -0.0104   -2.7297 H   0  0  0  0  0  0  0  0  0  0  0  0
    2.3987   -0.7400    0.2414 H   0  0  0  0  0  0  0  0  0  0  0  0
    1.7789   -1.7784   -1.0242 H   0  0  0  0  0  0  0  0  0  0  0  0
    3.9080   -1.8512   -2.1849 H   0  0  0  0  0  0  0  0  0  0  0  0
    3.9909   -2.4751   -0.5487 H   0  0  0  0  0  0  0  0  0  0  0  0
    5.9870   -1.2741   -0.9268 H   0  0  0  0  0  0  0  0  0  0  0  0
    4.3942    0.8385    0.5963 H   0  0  0  0  0  0  0  0  0  0  0  0
    7.2136   -0.3004    0.8926 H   0  0  0  0  0  0  0  0  0  0  0  0
    7.3523    1.5997    2.7407 H   0  0  0  0  0  0  0  0  0  0  0  0
    5.5916    1.4343    2.7993 H   0  0  0  0  0  0  0  0  0  0  0  0
    7.6051   -0.5608    3.1936 H   0  0  0  0  0  0  0  0  0  0  0  0
    6.3633    2.4357    0.2417 H   0  0  0  0  0  0  0  0  0  0  0  0
    7.9202    1.9557    0.5051 H   0  0  0  0  0  0  0  0  0  0  0  0
    5.3851   -1.3894    1.9632 H   0  0  0  0  0  0  0  0  0  0  0  0
    5.1290   -0.0854   -2.7089 H   0  0  0  0  0  0  0  0  0  0  0  0
  1  2  1  0
  2  3  1  0
  3  4  1  0
  4  5  1  0
  5  6  1  0
  6  7  1  0
  7  8  1  0
  8  9  1  0
  9 10  1  0
 10 11  1  0
 11 12  1  0
 12 13  1  0
 13 14  1  0
 14 15  1  0
 15 16  1  0
 16 17  1  0
 17 18  1  0
 18 19  1  0
 17 20  1  0
 16 21  1  0
 15 22  1  0
  1 23  1  0
  1 24  1  0
  1 25  1  0
  2 26  1  0
  2 27  1  0
  3 28  1  0
  3 29  1  0
  4 30  1  0
  4 31  1  0
  5 32  1  0
  5 33  1  0
  6 34  1  0
  6 35  1  0
  7 36  1  0
  7 37  1  0
  8 38  1  0
  8 39  1  0
  9 40  1  0
  9 41  1  0
 10 42  1  0
 10 43  1  0
 11 44  1  0
 11 45  1  0
 12 46  1  0
 12 47  1  0
 13 48  1  0
 13 49  1  0
 14 50  1  0
 14 51  1  0
 15 52  1  1
 16 53  1  6
 17 54  1  1
 18 55  1  0
 18 56  1  0
 19 57  1  0
 20 58  1  0
 20 59  1  0
 21 60  1  0
 22 61  1  0
M  END
$$$$
