
     RDKit          3D

 44 46  0  0  0  0  0  0  0  0999 V2000
    4.5225    3.3796    0.8559 C   0  0  0  0  0  0  0  0  0  0  0  0
    3.4170    3.5000    0.0181 C   0  0  0  0  0  0  0  0  0  0  0  0
    2.6840    2.3652   -0.3324 C   0  0  0  0  0  0  0  0  0  0  0  0
    3.0476    1.1045    0.1494 C   0  0  0  0  0  0  0  0  0  0  0  0
    4.1573    0.9888    0.9876 C   0  0  0  0  0  0  0  0  0  0  0  0
    4.8921    2.1257    1.3396 C   0  0  0  0  0  0  0  0  0  0  0  0
    2.2431    0.0814   -0.2689 O   0  0  0  0  0  0  0  0  0  0  0  0
    2.5734   -1.2328    0.1793 C   0  0  0  0  0  0  0  0  0  0  0  0
    1.5239   -2.1752   -0.3570 C   0  0  0  0  0  0  0  0  0  0  0  0
    0.2031   -2.0832    0.1068 C   0  0  0  0  0  0  0  0  0  0  0  0
   -0.7925   -2.9086   -0.4248 C   0  0  0  0  0  0  0  0  0  0  0  0
   -0.4646   -3.8771   -1.3723 C   0  0  0  0  0  0  0  0  0  0  0  0
    0.8490   -3.9861   -1.8282 C   0  0  0  0  0  0  0  0  0  0  0  0
    1.8368   -3.1323   -1.3317 C   0  0  0  0  0  0  0  0  0  0  0  0
   -2.1115   -2.8418   -0.0332 O   0  0  0  0  0  0  0  0  0  0  0  0
   -2.6432   -1.5823    0.1536 C   0  0  0  0  0  0  0  0  0  0  0  0
   -2.5270   -0.5951   -0.8169 C   0  0  0  0  0  0  0  0  0  0  0  0
   -3.0620    0.6685   -0.5607 C   0  0  0  0  0  0  0  0  0  0  0  0
   -3.7217    0.8756    0.6546 C   0  0  0  0  0  0  0  0  0  0  0  0
   -3.8409   -0.1795    1.5647 C   0  0  0  0  0  0  0  0  0  0  0  0
   -3.3014   -1.4060    1.3183 N   0  0  0  0  0  0  0  0  0  0  0  0
   -4.5622    0.0695    2.8828 C   0  0  0  0  0  0  0  0  0  0  0  0
   -4.8604   -1.0581    3.5876 F   0  0  0  0  0  0  0  0  0  0  0  0
   -5.7518    0.7213    2.7100 F   0  0  0  0  0  0  0  0  0  0  0  0
   -3.8376    0.8602    3.7287 F   0  0  0  0  0  0  0  0  0  0  0  0
   -2.8749    1.7903   -1.5457 C   0  0  0  0  0  0  0  0  0  0  0  0
   -1.5766    2.4276   -1.3735 N   0  0  0  0  0  0  0  0  0  0  0  0
    5.0961    4.2609    1.1308 H   0  0  0  0  0  0  0  0  0  0  0  0
    3.1247    4.4743   -0.3643 H   0  0  0  0  0  0  0  0  0  0  0  0
    1.8237    2.4653   -0.9896 H   0  0  0  0  0  0  0  0  0  0  0  0
    4.4806    0.0334    1.3864 H   0  0  0  0  0  0  0  0  0  0  0  0
    5.7557    2.0316    1.9933 H   0  0  0  0  0  0  0  0  0  0  0  0
    3.5645   -1.5205   -0.1915 H   0  0  0  0  0  0  0  0  0  0  0  0
    2.5648   -1.2883    1.2751 H   0  0  0  0  0  0  0  0  0  0  0  0
   -0.0416   -1.3525    0.8750 H   0  0  0  0  0  0  0  0  0  0  0  0
   -1.2329   -4.5378   -1.7646 H   0  0  0  0  0  0  0  0  0  0  0  0
    1.1026   -4.7325   -2.5770 H   0  0  0  0  0  0  0  0  0  0  0  0
    2.8523   -3.2200   -1.7122 H   0  0  0  0  0  0  0  0  0  0  0  0
   -2.0071   -0.7979   -1.7483 H   0  0  0  0  0  0  0  0  0  0  0  0
   -4.1426    1.8502    0.8939 H   0  0  0  0  0  0  0  0  0  0  0  0
   -3.6679    2.5372   -1.4252 H   0  0  0  0  0  0  0  0  0  0  0  0
   -2.9665    1.4083   -2.5689 H   0  0  0  0  0  0  0  0  0  0  0  0
   -0.8414    1.7300   -1.4924 H   0  0  0  0  0  0  0  0  0  0  0  0
   -1.4864    2.7580   -0.4137 H   0  0  0  0  0  0  0  0  0  0  0  0
  1  2  2  0
  2  3  1  0
  3  4  2  0
  4  5  1  0
  5  6  2  0
  4  7  1  0
  7  8  1  0
  8  9  1  0
  9 10  2  0
 10 11  1  0
 11 12  2  0
 12 13  1  0
 13 14  2  0
 11 15  1  0
 15 16  1  0
 16 17  2  0
 17 18  1  0
 18 19  2  0
 19 20  1  0
 20 21  2  0
 20 22  1  0
 22 23  1  0
 22 24  1  0
 22 25  1  0
 18 26  1  0
 26 27  1  0
  6  1  1  0
 14  9  1  0
 21 16  1  0
  1 28  1  0
  2 29  1  0
  3 30  1  0
  5 31  1  0
  6 32  1  0
  8 33  1  0
  8 34  1  0
 10 35  1  0
 12 36  1  0
 13 37  1  0
 14 38  1  0
 17 39  1  0
 19 40  1  0
 26 41  1  0
 26 42  1  0
 27 43  1  0
 27 44  1  0
M  END
$$$$
