
     RDKit          3D

 45 47  0  0  0  0  0  0  0  0999 V2000
   -5.8660   -0.6739   -0.2562 C   0  0  0  0  0  0  0  0  0  0  0  0
   -4.4471   -0.5054    0.2658 C   0  0  0  0  0  0  0  0  0  0  0  0
   -4.0587    0.8318   -0.1589 N   0  0  0  0  0  0  0  0  0  0  0  0
   -5.2055    1.5795   -0.6511 C   0  0  0  0  0  0  0  0  0  0  0  0
   -6.4172    0.7489   -0.2300 C   0  0  1  0  0  0  0  0  0  0  0  0
   -7.5072    0.8917   -1.1229 O   0  0  0  0  0  0  0  0  0  0  0  0
   -2.7796    1.3289   -0.3044 C   0  0  0  0  0  0  0  0  0  0  0  0
   -2.5255    2.4024   -0.8421 O   0  0  0  0  0  0  0  0  0  0  0  0
   -1.6549    0.5172    0.2044 C   0  0  0  0  0  0  0  0  0  0  0  0
   -0.6553    0.1234   -0.6881 C   0  0  0  0  0  0  0  0  0  0  0  0
    0.4235   -0.6246   -0.2194 C   0  0  0  0  0  0  0  0  0  0  0  0
    0.4922   -0.9947    1.1287 C   0  0  0  0  0  0  0  0  0  0  0  0
   -0.4986   -0.5781    2.0204 C   0  0  0  0  0  0  0  0  0  0  0  0
   -1.5707    0.1872    1.5616 C   0  0  0  0  0  0  0  0  0  0  0  0
    1.3561   -1.0216   -1.1515 O   0  0  0  0  0  0  0  0  0  0  0  0
    2.6735   -0.8710   -0.7728 C   0  0  0  0  0  0  0  0  0  0  0  0
    3.2488    0.3896   -0.7722 C   0  0  0  0  0  0  0  0  0  0  0  0
    4.5968    0.5105   -0.4275 C   0  0  0  0  0  0  0  0  0  0  0  0
    5.3085   -0.6537   -0.1192 C   0  0  0  0  0  0  0  0  0  0  0  0
    4.6619   -1.8941   -0.1648 C   0  0  0  0  0  0  0  0  0  0  0  0
    3.3433   -2.0078   -0.4857 N   0  0  0  0  0  0  0  0  0  0  0  0
    5.4559   -3.1455    0.1855 C   0  0  0  0  0  0  0  0  0  0  0  0
    6.6831   -3.1711   -0.4158 F   0  0  0  0  0  0  0  0  0  0  0  0
    4.8516   -4.3157   -0.1633 F   0  0  0  0  0  0  0  0  0  0  0  0
    5.7088   -3.2395    1.5243 F   0  0  0  0  0  0  0  0  0  0  0  0
    5.2616    1.8604   -0.4096 C   0  0  0  0  0  0  0  0  0  0  0  0
    5.3580    2.4118   -1.7522 N   0  0  0  0  0  0  0  0  0  0  0  0
   -5.8579   -1.0593   -1.2837 H   0  0  0  0  0  0  0  0  0  0  0  0
   -6.4593   -1.3683    0.3460 H   0  0  0  0  0  0  0  0  0  0  0  0
   -4.4311   -0.5291    1.3604 H   0  0  0  0  0  0  0  0  0  0  0  0
   -3.7642   -1.2644   -0.1254 H   0  0  0  0  0  0  0  0  0  0  0  0
   -5.1282    1.6737   -1.7404 H   0  0  0  0  0  0  0  0  0  0  0  0
   -5.2177    2.5864   -0.2218 H   0  0  0  0  0  0  0  0  0  0  0  0
   -6.7361    1.0226    0.7828 H   0  0  0  0  0  0  0  0  0  0  0  0
   -8.2191    0.3042   -0.8164 H   0  0  0  0  0  0  0  0  0  0  0  0
   -0.7178    0.4018   -1.7371 H   0  0  0  0  0  0  0  0  0  0  0  0
    1.3105   -1.6126    1.4912 H   0  0  0  0  0  0  0  0  0  0  0  0
   -0.4324   -0.8512    3.0706 H   0  0  0  0  0  0  0  0  0  0  0  0
   -2.3304    0.5301    2.2589 H   0  0  0  0  0  0  0  0  0  0  0  0
    2.6641    1.2618   -1.0474 H   0  0  0  0  0  0  0  0  0  0  0  0
    6.3618   -0.6023    0.1474 H   0  0  0  0  0  0  0  0  0  0  0  0
    4.6840    2.5374    0.2301 H   0  0  0  0  0  0  0  0  0  0  0  0
    6.2638    1.7897    0.0279 H   0  0  0  0  0  0  0  0  0  0  0  0
    5.9188    1.7924   -2.3350 H   0  0  0  0  0  0  0  0  0  0  0  0
    5.8540    3.3002   -1.7172 H   0  0  0  0  0  0  0  0  0  0  0  0
  1  2  1  0
  2  3  1  0
  3  4  1  0
  4  5  1  0
  5  6  1  0
  3  7  1  0
  7  8  2  0
  7  9  1  0
  9 10  2  0
 10 11  1  0
 11 12  2  0
 12 13  1  0
 13 14  2  0
 11 15  1  0
 15 16  1  0
 16 17  2  0
 17 18  1  0
 18 19  2  0
 19 20  1  0
 20 21  2  0
 20 22  1  0
 22 23  1  0
 22 24  1  0
 22 25  1  0
 18 26  1  0
 26 27  1  0
  5  1  1  0
 14  9  1  0
 21 16  1  0
  1 28  1  0
  1 29  1  0
  2 30  1  0
  2 31  1  0
  4 32  1  0
  4 33  1  0
  5 34  1  1
  6 35  1  0
 10 36  1  0
 12 37  1  0
 13 38  1  0
 14 39  1  0
 17 40  1  0
 19 41  1  0
 26 42  1  0
 26 43  1  0
 27 44  1  0
 27 45  1  0
M  END
$$$$
