
     RDKit          3D

 68 73  0  0  0  0  0  0  0  0999 V2000
    4.0941    1.8464   -0.7448 C   0  0  0  0  0  0  0  0  0  0  0  0
    3.7306    1.1694   -2.0610 C   0  0  2  0  0  0  0  0  0  0  0  0
    2.8254   -0.0497   -1.7699 C   0  0  2  0  0  0  0  0  0  0  0  0
    1.5849    0.4207   -1.1900 O   0  0  0  0  0  0  0  0  0  0  0  0
    1.6635    1.3725   -0.1957 C   0  0  0  0  0  0  0  0  0  0  0  0
    2.8611    2.0556    0.0898 C   0  0  0  0  0  0  0  0  0  0  0  0
    2.8897    2.9499    1.1603 C   0  0  0  0  0  0  0  0  0  0  0  0
    1.7454    3.2693    1.8688 C   0  0  0  0  0  0  0  0  0  0  0  0
    0.5481    2.6580    1.5121 C   0  0  0  0  0  0  0  0  0  0  0  0
    0.4774    1.6701    0.5123 C   0  0  0  0  0  0  0  0  0  0  0  0
   -0.8552    0.9558    0.1727 C   0  0  2  0  0  0  0  0  0  0  0  0
   -1.7479    1.9033   -0.6705 C   0  0  2  0  0  0  0  0  0  0  0  0
   -3.2628    1.6608   -0.4272 C   0  0  2  0  0  0  0  0  0  0  0  0
   -3.5477    1.8225    0.9819 O   0  0  0  0  0  0  0  0  0  0  0  0
   -2.8461    0.9370    1.7598 C   0  0  0  0  0  0  0  0  0  0  0  0
   -3.4557    0.5763    2.9653 C   0  0  0  0  0  0  0  0  0  0  0  0
   -2.8465   -0.3743    3.7710 C   0  0  0  0  0  0  0  0  0  0  0  0
   -1.6623   -0.9819    3.3916 C   0  0  0  0  0  0  0  0  0  0  0  0
   -1.0385   -0.5805    2.2094 C   0  0  0  0  0  0  0  0  0  0  0  0
   -1.5939    0.4158    1.3964 C   0  0  0  0  0  0  0  0  0  0  0  0
    0.1397   -1.1547    1.8346 O   0  0  0  0  0  0  0  0  0  0  0  0
   -3.4014   -0.7483    4.9608 O   0  0  0  0  0  0  0  0  0  0  0  0
   -3.9766    0.4165   -0.9655 C   0  0  0  0  0  0  0  0  0  0  0  0
   -3.3418   -0.5756   -1.7244 C   0  0  0  0  0  0  0  0  0  0  0  0
   -4.0563   -1.6907   -2.1418 C   0  0  0  0  0  0  0  0  0  0  0  0
   -5.4061   -1.8429   -1.8365 C   0  0  0  0  0  0  0  0  0  0  0  0
   -6.0662   -0.8663   -1.1007 C   0  0  0  0  0  0  0  0  0  0  0  0
   -5.3519    0.2570   -0.6751 C   0  0  0  0  0  0  0  0  0  0  0  0
   -6.0415   -2.9706   -2.2783 O   0  0  0  0  0  0  0  0  0  0  0  0
   -3.4180   -2.6528   -2.8702 O   0  0  0  0  0  0  0  0  0  0  0  0
   -1.4072    1.8447   -2.0653 O   0  0  0  0  0  0  0  0  0  0  0  0
   -0.6042    3.0669    2.1343 O   0  0  0  0  0  0  0  0  0  0  0  0
    4.0704    3.5570    1.4922 O   0  0  0  0  0  0  0  0  0  0  0  0
    3.3904   -1.2403   -0.9812 C   0  0  0  0  0  0  0  0  0  0  0  0
    2.5120   -2.1298   -0.3274 C   0  0  0  0  0  0  0  0  0  0  0  0
    3.0053   -3.2360    0.3545 C   0  0  0  0  0  0  0  0  0  0  0  0
    4.3708   -3.4958    0.3973 C   0  0  0  0  0  0  0  0  0  0  0  0
    5.2597   -2.6586   -0.2540 C   0  0  0  0  0  0  0  0  0  0  0  0
    4.7679   -1.5461   -0.9512 C   0  0  0  0  0  0  0  0  0  0  0  0
    4.7938   -4.6038    1.0852 O   0  0  0  0  0  0  0  0  0  0  0  0
    2.1413   -4.0800    0.9890 O   0  0  0  0  0  0  0  0  0  0  0  0
    4.8966    0.8695   -2.8260 O   0  0  0  0  0  0  0  0  0  0  0  0
    4.8357    1.2733   -0.1854 H   0  0  0  0  0  0  0  0  0  0  0  0
    4.5658    2.8129   -0.9824 H   0  0  0  0  0  0  0  0  0  0  0  0
    3.1410    1.8805   -2.6642 H   0  0  0  0  0  0  0  0  0  0  0  0
    2.5434   -0.4717   -2.7446 H   0  0  0  0  0  0  0  0  0  0  0  0
    1.7820    4.0207    2.6523 H   0  0  0  0  0  0  0  0  0  0  0  0
   -0.6378    0.0771   -0.4459 H   0  0  0  0  0  0  0  0  0  0  0  0
   -1.5535    2.9408   -0.3598 H   0  0  0  0  0  0  0  0  0  0  0  0
   -3.7757    2.4927   -0.9288 H   0  0  0  0  0  0  0  0  0  0  0  0
   -4.4177    1.0148    3.2272 H   0  0  0  0  0  0  0  0  0  0  0  0
   -1.2158   -1.7478    4.0288 H   0  0  0  0  0  0  0  0  0  0  0  0
    0.3001   -1.9505    2.3733 H   0  0  0  0  0  0  0  0  0  0  0  0
   -3.9913   -0.0232    5.2509 H   0  0  0  0  0  0  0  0  0  0  0  0
   -2.2905   -0.5045   -1.9969 H   0  0  0  0  0  0  0  0  0  0  0  0
   -7.1165   -0.9603   -0.8424 H   0  0  0  0  0  0  0  0  0  0  0  0
   -5.8718    1.0194   -0.0899 H   0  0  0  0  0  0  0  0  0  0  0  0
   -6.9867   -2.8765   -2.0567 H   0  0  0  0  0  0  0  0  0  0  0  0
   -4.0948   -3.3512   -2.9843 H   0  0  0  0  0  0  0  0  0  0  0  0
   -1.9235    2.5309   -2.5234 H   0  0  0  0  0  0  0  0  0  0  0  0
   -0.3726    3.4845    2.9797 H   0  0  0  0  0  0  0  0  0  0  0  0
    4.1496    3.5048    2.4661 H   0  0  0  0  0  0  0  0  0  0  0  0
    1.4359   -1.9557   -0.3471 H   0  0  0  0  0  0  0  0  0  0  0  0
    6.3318   -2.8475   -0.2450 H   0  0  0  0  0  0  0  0  0  0  0  0
    5.4903   -0.9228   -1.4764 H   0  0  0  0  0  0  0  0  0  0  0  0
    5.7689   -4.5855    1.0904 H   0  0  0  0  0  0  0  0  0  0  0  0
    2.7253   -4.7885    1.3347 H   0  0  0  0  0  0  0  0  0  0  0  0
    5.3383    1.7172   -3.0077 H   0  0  0  0  0  0  0  0  0  0  0  0
  1  2  1  0
  2  3  1  0
  3  4  1  0
  4  5  1  0
  5  6  2  0
  6  7  1  0
  7  8  2  0
  8  9  1  0
  9 10  2  0
 10 11  1  0
 11 12  1  0
 12 13  1  0
 13 14  1  0
 14 15  1  0
 15 16  2  0
 16 17  1  0
 17 18  2  0
 18 19  1  0
 19 20  2  0
 19 21  1  0
 17 22  1  0
 13 23  1  0
 23 24  2  0
 24 25  1  0
 25 26  2  0
 26 27  1  0
 27 28  2  0
 26 29  1  0
 25 30  1  0
 12 31  1  0
  9 32  1  0
  7 33  1  0
  3 34  1  0
 34 35  2  0
 35 36  1  0
 36 37  2  0
 37 38  1  0
 38 39  2  0
 37 40  1  0
 36 41  1  0
  2 42  1  0
  6  1  1  0
 10  5  1  0
 20 11  1  0
 20 15  1  0
 28 23  1  0
 39 34  1  0
  1 43  1  0
  1 44  1  0
  2 45  1  6
  3 46  1  6
  8 47  1  0
 11 48  1  6
 12 49  1  1
 13 50  1  6
 16 51  1  0
 18 52  1  0
 21 53  1  0
 22 54  1  0
 24 55  1  0
 27 56  1  0
 28 57  1  0
 29 58  1  0
 30 59  1  0
 31 60  1  0
 32 61  1  0
 33 62  1  0
 35 63  1  0
 38 64  1  0
 39 65  1  0
 40 66  1  0
 41 67  1  0
 42 68  1  0
M  END
$$$$
