
     RDKit          3D

 51 53  0  0  0  0  0  0  0  0999 V2000
    4.9930    0.7636    0.0539 C   0  0  0  0  0  0  0  0  0  0  0  0
    4.4796    0.2626   -1.2599 C   0  0  0  0  0  0  0  0  0  0  0  0
    3.2768   -0.2858   -1.5218 C   0  0  0  0  0  0  0  0  0  0  0  0
    2.8761   -0.7252   -2.8971 C   0  0  0  0  0  0  0  0  0  0  0  0
    2.2880   -0.5097   -0.4349 C   0  0  0  0  0  0  0  0  0  0  0  0
    2.5452   -1.0274    0.6402 O   0  0  0  0  0  0  0  0  0  0  0  0
    1.0873    0.0202   -0.7989 O   0  0  0  0  0  0  0  0  0  0  0  0
    0.0402   -0.0134    0.1914 C   0  0  1  0  0  0  0  0  0  0  0  0
   -0.7936    1.2993    0.0625 C   0  0  2  0  0  0  0  0  0  0  0  0
   -0.0603    2.6560    0.0873 C   0  0  1  0  0  0  0  0  0  0  0  0
   -0.1095    3.0366    1.5391 C   0  0  0  0  0  0  0  0  0  0  0  0
    0.6169    3.8342    2.1066 O   0  0  0  0  0  0  0  0  0  0  0  0
   -1.1463    2.3937    2.1385 O   0  0  0  0  0  0  0  0  0  0  0  0
   -1.8081    1.5190    1.2061 C   0  0  2  0  0  0  0  0  0  0  0  0
   -2.2911    0.3299    2.0440 C   0  0  0  0  0  0  0  0  0  0  0  0
   -3.0241   -0.7932    1.2947 C   0  0  2  0  0  0  0  0  0  0  0  0
   -2.3344   -1.1235   -0.0334 C   0  0  1  0  0  0  0  0  0  0  0  0
   -0.7918   -1.3429    0.0537 C   0  0  1  0  0  0  0  0  0  0  0  0
   -0.6354   -2.1704   -1.2242 C   0  0  0  0  0  0  0  0  0  0  0  0
    0.3750   -2.3508   -1.8836 O   0  0  0  0  0  0  0  0  0  0  0  0
   -1.8880   -2.8860   -1.5459 C   0  0  0  0  0  0  0  0  0  0  0  0
   -2.8343   -2.3278   -0.7865 C   0  0  0  0  0  0  0  0  0  0  0  0
   -0.3782   -2.3319    1.1782 C   0  0  0  0  0  0  0  0  0  0  0  0
   -4.4930   -0.3996    1.0765 C   0  0  0  0  0  0  0  0  0  0  0  0
    1.3415    2.7725   -0.4756 C   0  0  0  0  0  0  0  0  0  0  0  0
    4.2251    0.8307    0.8276 H   0  0  0  0  0  0  0  0  0  0  0  0
    5.7950    0.1119    0.4131 H   0  0  0  0  0  0  0  0  0  0  0  0
    5.4055    1.7693   -0.0780 H   0  0  0  0  0  0  0  0  0  0  0  0
    5.1821    0.3794   -2.0837 H   0  0  0  0  0  0  0  0  0  0  0  0
    1.9586   -0.2242   -3.2216 H   0  0  0  0  0  0  0  0  0  0  0  0
    2.7161   -1.8074   -2.9193 H   0  0  0  0  0  0  0  0  0  0  0  0
    3.6490   -0.4956   -3.6387 H   0  0  0  0  0  0  0  0  0  0  0  0
    0.4980    0.0304    1.1887 H   0  0  0  0  0  0  0  0  0  0  0  0
   -1.3002    1.2589   -0.9097 H   0  0  0  0  0  0  0  0  0  0  0  0
   -0.6913    3.3908   -0.4333 H   0  0  0  0  0  0  0  0  0  0  0  0
   -2.6794    2.0663    0.8242 H   0  0  0  0  0  0  0  0  0  0  0  0
   -2.9375    0.7119    2.8471 H   0  0  0  0  0  0  0  0  0  0  0  0
   -1.4384   -0.0810    2.5955 H   0  0  0  0  0  0  0  0  0  0  0  0
   -3.0289   -1.6816    1.9399 H   0  0  0  0  0  0  0  0  0  0  0  0
   -2.5651   -0.3050   -0.7279 H   0  0  0  0  0  0  0  0  0  0  0  0
   -1.9568   -3.6988   -2.2469 H   0  0  0  0  0  0  0  0  0  0  0  0
   -3.8712   -2.6370   -0.8155 H   0  0  0  0  0  0  0  0  0  0  0  0
    0.6356   -2.7124    1.0120 H   0  0  0  0  0  0  0  0  0  0  0  0
   -0.3938   -1.8727    2.1692 H   0  0  0  0  0  0  0  0  0  0  0  0
   -1.0337   -3.2097    1.2201 H   0  0  0  0  0  0  0  0  0  0  0  0
   -5.0647   -1.2210    0.6342 H   0  0  0  0  0  0  0  0  0  0  0  0
   -4.9731   -0.1495    2.0288 H   0  0  0  0  0  0  0  0  0  0  0  0
   -4.5820    0.4694    0.4161 H   0  0  0  0  0  0  0  0  0  0  0  0
    1.6630    3.8208   -0.4720 H   0  0  0  0  0  0  0  0  0  0  0  0
    1.3856    2.4272   -1.5124 H   0  0  0  0  0  0  0  0  0  0  0  0
    2.0710    2.2293    0.1314 H   0  0  0  0  0  0  0  0  0  0  0  0
  1  2  1  0
  2  3  2  0
  3  4  1  0
  3  5  1  0
  5  6  2  0
  5  7  1  0
  7  8  1  0
  8  9  1  0
  9 10  1  0
 10 11  1  0
 11 12  2  0
 11 13  1  0
 13 14  1  0
 14 15  1  0
 15 16  1  0
 16 17  1  0
 17 18  1  0
 18 19  1  0
 19 20  2  0
 19 21  1  0
 21 22  2  0
 18 23  1  1
 16 24  1  0
 10 25  1  0
 18  8  1  0
 14  9  1  0
 22 17  1  0
  1 26  1  0
  1 27  1  0
  1 28  1  0
  2 29  1  0
  4 30  1  0
  4 31  1  0
  4 32  1  0
  8 33  1  1
  9 34  1  6
 10 35  1  6
 14 36  1  6
 15 37  1  0
 15 38  1  0
 16 39  1  1
 17 40  1  6
 21 41  1  0
 22 42  1  0
 23 43  1  0
 23 44  1  0
 23 45  1  0
 24 46  1  0
 24 47  1  0
 24 48  1  0
 25 49  1  0
 25 50  1  0
 25 51  1  0
M  END
$$$$
