
     RDKit          3D

 55 58  0  0  0  0  0  0  0  0999 V2000
    0.8359   -4.8900   -0.6373 C   0  0  0  0  0  0  0  0  0  0  0  0
    0.7135   -3.6337    0.0200 O   0  0  0  0  0  0  0  0  0  0  0  0
   -0.4316   -2.9100   -0.1796 C   0  0  0  0  0  0  0  0  0  0  0  0
   -0.5147   -1.6471    0.4172 C   0  0  0  0  0  0  0  0  0  0  0  0
   -1.6921   -0.9037    0.2981 C   0  0  0  0  0  0  0  0  0  0  0  0
   -2.7958   -1.3867   -0.4426 C   0  0  0  0  0  0  0  0  0  0  0  0
   -2.7000   -2.6352   -1.0644 C   0  0  0  0  0  0  0  0  0  0  0  0
   -1.5301   -3.3744   -0.9171 C   0  0  0  0  0  0  0  0  0  0  0  0
   -3.6908   -3.1551   -1.7932 N   0  0  0  0  0  0  0  0  0  0  0  0
   -4.7970   -2.4161   -1.9187 C   0  0  0  0  0  0  0  0  0  0  0  0
   -5.0082   -1.2157   -1.3750 N   0  0  0  0  0  0  0  0  0  0  0  0
   -4.0147   -0.7041   -0.6266 C   0  0  0  0  0  0  0  0  0  0  0  0
   -4.1977    0.5575    0.0038 N   0  0  0  0  0  0  0  0  0  0  0  0
   -5.2160    1.5097   -0.2333 C   0  0  0  0  0  0  0  0  0  0  0  0
   -5.7942    1.6923   -1.4973 C   0  0  0  0  0  0  0  0  0  0  0  0
   -6.7639    2.6762   -1.7029 C   0  0  0  0  0  0  0  0  0  0  0  0
   -7.1430    3.5044   -0.6531 C   0  0  0  0  0  0  0  0  0  0  0  0
   -6.5534    3.3685    0.5981 C   0  0  0  0  0  0  0  0  0  0  0  0
   -5.5858    2.3833    0.8026 C   0  0  0  0  0  0  0  0  0  0  0  0
   -8.0769    4.4513   -0.8273 F   0  0  0  0  0  0  0  0  0  0  0  0
   -7.4699    2.8591   -3.2632 Cl  0  0  0  0  0  0  0  0  0  0  0  0
    0.4424   -1.0364    1.1836 O   0  0  0  0  0  0  0  0  0  0  0  0
    1.7968   -1.2100    0.7597 C   0  0  0  0  0  0  0  0  0  0  0  0
    2.5944   -0.0056    1.2573 C   0  0  0  0  0  0  0  0  0  0  0  0
    4.0709   -0.1209    0.8691 C   0  0  0  0  0  0  0  0  0  0  0  0
    4.8694    0.9781    1.4230 N   0  0  0  0  0  0  0  0  0  0  0  0
    6.3089    0.6486    1.4213 C   0  0  0  0  0  0  0  0  0  0  0  0
    7.1603    1.8943    1.7042 C   0  0  0  0  0  0  0  0  0  0  0  0
    7.0265    2.9154    0.7072 O   0  0  0  0  0  0  0  0  0  0  0  0
    5.8182    2.8040   -0.0525 C   0  0  0  0  0  0  0  0  0  0  0  0
    4.6277    2.2839    0.7711 C   0  0  0  0  0  0  0  0  0  0  0  0
    0.7742   -4.7754   -1.7259 H   0  0  0  0  0  0  0  0  0  0  0  0
    1.8266   -5.2959   -0.4027 H   0  0  0  0  0  0  0  0  0  0  0  0
    0.0908   -5.6022   -0.2674 H   0  0  0  0  0  0  0  0  0  0  0  0
   -1.7311    0.0745    0.7719 H   0  0  0  0  0  0  0  0  0  0  0  0
   -1.5109   -4.3486   -1.3982 H   0  0  0  0  0  0  0  0  0  0  0  0
   -5.6005   -2.8320   -2.5170 H   0  0  0  0  0  0  0  0  0  0  0  0
   -3.9960    0.4573    0.9934 H   0  0  0  0  0  0  0  0  0  0  0  0
   -5.4881    1.0692   -2.3336 H   0  0  0  0  0  0  0  0  0  0  0  0
   -6.8476    4.0299    1.4044 H   0  0  0  0  0  0  0  0  0  0  0  0
   -5.1269    2.2970    1.7875 H   0  0  0  0  0  0  0  0  0  0  0  0
    1.8689   -1.2640   -0.3335 H   0  0  0  0  0  0  0  0  0  0  0  0
    2.2024   -2.1214    1.2104 H   0  0  0  0  0  0  0  0  0  0  0  0
    2.1432    0.9072    0.8499 H   0  0  0  0  0  0  0  0  0  0  0  0
    2.4899    0.0708    2.3480 H   0  0  0  0  0  0  0  0  0  0  0  0
    4.1809   -0.1730   -0.2220 H   0  0  0  0  0  0  0  0  0  0  0  0
    4.4428   -1.0719    1.2723 H   0  0  0  0  0  0  0  0  0  0  0  0
    6.5080   -0.1072    2.1901 H   0  0  0  0  0  0  0  0  0  0  0  0
    6.6048    0.2285    0.4496 H   0  0  0  0  0  0  0  0  0  0  0  0
    6.8921    2.3301    2.6730 H   0  0  0  0  0  0  0  0  0  0  0  0
    8.2203    1.6223    1.7528 H   0  0  0  0  0  0  0  0  0  0  0  0
    5.5894    3.7980   -0.4511 H   0  0  0  0  0  0  0  0  0  0  0  0
    6.0114    2.1496   -0.9103 H   0  0  0  0  0  0  0  0  0  0  0  0
    4.4288    3.0024    1.5755 H   0  0  0  0  0  0  0  0  0  0  0  0
    3.7374    2.2728    0.1336 H   0  0  0  0  0  0  0  0  0  0  0  0
  1  2  1  0
  2  3  1  0
  3  4  2  0
  4  5  1  0
  5  6  2  0
  6  7  1  0
  7  8  2  0
  7  9  1  0
  9 10  2  0
 10 11  1  0
 11 12  2  0
 12 13  1  0
 13 14  1  0
 14 15  2  0
 15 16  1  0
 16 17  2  0
 17 18  1  0
 18 19  2  0
 17 20  1  0
 16 21  1  0
  4 22  1  0
 22 23  1  0
 23 24  1  0
 24 25  1  0
 25 26  1  0
 26 27  1  0
 27 28  1  0
 28 29  1  0
 29 30  1  0
 30 31  1  0
  8  3  1  0
 12  6  1  0
 19 14  1  0
 31 26  1  0
  1 32  1  0
  1 33  1  0
  1 34  1  0
  5 35  1  0
  8 36  1  0
 10 37  1  0
 13 38  1  0
 15 39  1  0
 18 40  1  0
 19 41  1  0
 23 42  1  0
 23 43  1  0
 24 44  1  0
 24 45  1  0
 25 46  1  0
 25 47  1  0
 27 48  1  0
 27 49  1  0
 28 50  1  0
 28 51  1  0
 30 52  1  0
 30 53  1  0
 31 54  1  0
 31 55  1  0
M  END
$$$$
