
     RDKit          3D

 82 83  0  0  0  0  0  0  0  0999 V2000
   -8.1764   -0.3720   -1.4568 C   0  0  0  0  0  0  0  0  0  0  0  0
   -6.7611   -0.0766   -1.8792 C   0  0  0  0  0  0  0  0  0  0  0  0
   -6.4993    0.4680   -2.9471 O   0  0  0  0  0  0  0  0  0  0  0  0
   -5.8217   -0.4203   -0.9308 N   0  0  0  0  0  0  0  0  0  0  0  0
   -4.4026   -0.1321   -1.1171 C   0  0  2  0  0  0  0  0  0  0  0  0
   -3.6109   -1.4303   -1.3961 C   0  0  2  0  0  0  0  0  0  0  0  0
   -2.1182   -1.1398   -1.5193 C   0  0  0  0  0  0  0  0  0  0  0  0
   -1.5708   -0.3762   -0.3012 C   0  0  1  0  0  0  0  0  0  0  0  0
   -2.3762    0.8044   -0.1301 O   0  0  0  0  0  0  0  0  0  0  0  0
   -3.7765    0.5542    0.1147 C   0  0  1  0  0  0  0  0  0  0  0  0
   -4.4481    1.9135    0.4585 C   0  0  1  0  0  0  0  0  0  0  0  0
   -5.4200    1.7771    1.6533 C   0  0  1  0  0  0  0  0  0  0  0  0
   -6.1348    3.0991    1.9696 C   0  0  0  0  0  0  0  0  0  0  0  0
   -7.2407    3.2445    1.0655 O   0  0  0  0  0  0  0  0  0  0  0  0
   -6.4125    0.7638    1.4147 O   0  0  0  0  0  0  0  0  0  0  0  0
   -3.4375    2.8726    0.8246 O   0  0  0  0  0  0  0  0  0  0  0  0
   -1.5715   -1.2563    1.0028 C   0  0  0  0  0  0  0  0  0  0  0  0
   -1.8191   -0.8775    2.1377 O   0  0  0  0  0  0  0  0  0  0  0  0
   -1.2740   -2.5531    0.7786 O   0  0  0  0  0  0  0  0  0  0  0  0
   -0.2749    0.1523   -0.6179 O   0  0  0  0  0  0  0  0  0  0  0  0
    0.8134   -0.7758   -0.7895 C   0  0  1  0  0  0  0  0  0  0  0  0
    1.5629   -0.3212   -2.0488 C   0  0  2  0  0  0  0  0  0  0  0  0
    2.7449   -1.2597   -2.3205 C   0  0  2  0  0  0  0  0  0  0  0  0
    3.1891   -1.9857   -1.1625 O   0  0  0  0  0  0  0  0  0  0  0  0
    3.1636   -1.2799    0.0788 C   0  0  2  0  0  0  0  0  0  0  0  0
    1.7774   -0.6743    0.4055 C   0  0  2  0  0  0  0  0  0  0  0  0
    1.2095   -1.3514    1.5415 O   0  0  0  0  0  0  0  0  0  0  0  0
    4.1856   -0.2807    0.0975 O   0  0  0  0  0  0  0  0  0  0  0  0
    5.0793   -0.3775    1.2259 C   0  0  2  0  0  0  0  0  0  0  0  0
    4.5192    0.3601    2.4671 C   0  0  1  0  0  0  0  0  0  0  0  0
    4.1779    1.8434    2.2802 C   0  0  0  0  0  0  0  0  0  0  0  0
    3.4753    2.2705    3.4566 O   0  0  0  0  0  0  0  0  0  0  0  0
    3.3210   -0.3054    2.9357 O   0  0  0  0  0  0  0  0  0  0  0  0
    6.4444    0.1856    0.7662 C   0  0  1  0  0  0  0  0  0  0  0  0
    7.0990   -0.6574   -0.3487 C   0  0  2  0  0  0  0  0  0  0  0  0
    7.3587   -2.0734    0.1235 C   0  0  0  0  0  0  0  0  0  0  0  0
    6.5902   -3.0068   -0.0946 O   0  0  0  0  0  0  0  0  0  0  0  0
    8.3632   -0.0988   -0.7112 O   0  0  0  0  0  0  0  0  0  0  0  0
    6.2448    1.5263    0.2680 O   0  0  0  0  0  0  0  0  0  0  0  0
    3.9426   -0.5942   -3.0033 C   0  0  0  0  0  0  0  0  0  0  0  0
    4.9499   -1.5786   -3.2703 O   0  0  0  0  0  0  0  0  0  0  0  0
    1.9853    1.0410   -1.8718 O   0  0  0  0  0  0  0  0  0  0  0  0
   -4.0537   -2.0405   -2.6131 O   0  0  0  0  0  0  0  0  0  0  0  0
   -8.2094   -1.1931   -0.7375 H   0  0  0  0  0  0  0  0  0  0  0  0
   -8.7611   -0.6605   -2.3292 H   0  0  0  0  0  0  0  0  0  0  0  0
   -8.6072    0.5282   -1.0082 H   0  0  0  0  0  0  0  0  0  0  0  0
   -6.1547   -0.5584    0.0212 H   0  0  0  0  0  0  0  0  0  0  0  0
   -4.2857    0.5213   -1.9911 H   0  0  0  0  0  0  0  0  0  0  0  0
   -3.7956   -2.1540   -0.5925 H   0  0  0  0  0  0  0  0  0  0  0  0
   -1.9469   -0.5445   -2.4252 H   0  0  0  0  0  0  0  0  0  0  0  0
   -1.5750   -2.0759   -1.7024 H   0  0  0  0  0  0  0  0  0  0  0  0
   -3.8717   -0.1021    0.9843 H   0  0  0  0  0  0  0  0  0  0  0  0
   -4.9721    2.3084   -0.4202 H   0  0  0  0  0  0  0  0  0  0  0  0
   -4.8405    1.4820    2.5401 H   0  0  0  0  0  0  0  0  0  0  0  0
   -6.5530    3.0632    2.9815 H   0  0  0  0  0  0  0  0  0  0  0  0
   -5.4776    3.9646    1.8847 H   0  0  0  0  0  0  0  0  0  0  0  0
   -7.6720    4.0906    1.2949 H   0  0  0  0  0  0  0  0  0  0  0  0
   -7.2020    1.2756    1.1216 H   0  0  0  0  0  0  0  0  0  0  0  0
   -2.6230    2.5867    0.3546 H   0  0  0  0  0  0  0  0  0  0  0  0
   -1.1060   -2.9025    1.6843 H   0  0  0  0  0  0  0  0  0  0  0  0
    0.4512   -1.7988   -0.9201 H   0  0  0  0  0  0  0  0  0  0  0  0
    0.8949   -0.3080   -2.9194 H   0  0  0  0  0  0  0  0  0  0  0  0
    2.3851   -2.0539   -2.9891 H   0  0  0  0  0  0  0  0  0  0  0  0
    3.3851   -2.0496    0.8245 H   0  0  0  0  0  0  0  0  0  0  0  0
    1.8767    0.3751    0.7072 H   0  0  0  0  0  0  0  0  0  0  0  0
    1.8346   -1.1654    2.2800 H   0  0  0  0  0  0  0  0  0  0  0  0
    5.2141   -1.4307    1.5060 H   0  0  0  0  0  0  0  0  0  0  0  0
    5.2362    0.2664    3.2906 H   0  0  0  0  0  0  0  0  0  0  0  0
    3.5215    2.0032    1.4237 H   0  0  0  0  0  0  0  0  0  0  0  0
    5.0790    2.4549    2.1788 H   0  0  0  0  0  0  0  0  0  0  0  0
    3.3168    3.2272    3.3722 H   0  0  0  0  0  0  0  0  0  0  0  0
    2.9589    0.3401    3.5908 H   0  0  0  0  0  0  0  0  0  0  0  0
    7.1272    0.2573    1.6204 H   0  0  0  0  0  0  0  0  0  0  0  0
    6.4765   -0.6762   -1.2485 H   0  0  0  0  0  0  0  0  0  0  0  0
    8.2547   -2.2136    0.7554 H   0  0  0  0  0  0  0  0  0  0  0  0
    8.5154   -0.3311   -1.6456 H   0  0  0  0  0  0  0  0  0  0  0  0
    5.5836    1.4552   -0.4496 H   0  0  0  0  0  0  0  0  0  0  0  0
    3.6478   -0.1387   -3.9531 H   0  0  0  0  0  0  0  0  0  0  0  0
    4.4061    0.1718   -2.3774 H   0  0  0  0  0  0  0  0  0  0  0  0
    4.9391   -2.1840   -2.5010 H   0  0  0  0  0  0  0  0  0  0  0  0
    1.2085    1.5146   -1.5113 H   0  0  0  0  0  0  0  0  0  0  0  0
   -3.6560   -2.9259   -2.6772 H   0  0  0  0  0  0  0  0  0  0  0  0
  1  2  1  0
  2  3  2  0
  2  4  1  0
  4  5  1  0
  5  6  1  0
  6  7  1  0
  7  8  1  0
  8  9  1  0
  9 10  1  0
 10 11  1  0
 11 12  1  0
 12 13  1  0
 13 14  1  0
 12 15  1  0
 11 16  1  0
  8 17  1  0
 17 18  2  0
 17 19  1  0
  8 20  1  6
 20 21  1  0
 21 22  1  0
 22 23  1  0
 23 24  1  0
 24 25  1  0
 25 26  1  0
 26 27  1  0
 25 28  1  0
 28 29  1  0
 29 30  1  0
 30 31  1  0
 31 32  1  0
 30 33  1  0
 29 34  1  0
 34 35  1  0
 35 36  1  0
 36 37  2  0
 35 38  1  0
 34 39  1  0
 23 40  1  0
 40 41  1  0
 22 42  1  0
  6 43  1  0
 10  5  1  0
 26 21  1  0
  1 44  1  0
  1 45  1  0
  1 46  1  0
  4 47  1  0
  5 48  1  6
  6 49  1  1
  7 50  1  0
  7 51  1  0
 10 52  1  1
 11 53  1  6
 12 54  1  1
 13 55  1  0
 13 56  1  0
 14 57  1  0
 15 58  1  0
 16 59  1  0
 19 60  1  0
 21 61  1  6
 22 62  1  6
 23 63  1  6
 25 64  1  1
 26 65  1  1
 27 66  1  0
 29 67  1  1
 30 68  1  1
 31 69  1  0
 31 70  1  0
 32 71  1  0
 33 72  1  0
 34 73  1  1
 35 74  1  6
 36 75  1  0
 38 76  1  0
 39 77  1  0
 40 78  1  0
 40 79  1  0
 41 80  1  0
 42 81  1  0
 43 82  1  0
M  END
$$$$
