
     RDKit          3D

 20 20  0  0  0  0  0  0  0  0999 V2000
   -2.6912    0.8785   -0.2051 C   0  0  0  0  0  0  0  0  0  0  0  0
   -1.3802    0.1492   -0.0264 C   0  0  0  0  0  0  0  0  0  0  0  0
   -1.2146   -0.9431   -0.6851 N   0  0  0  0  0  0  0  0  0  0  0  0
    0.0658   -1.6445   -0.5862 C   0  0  0  0  0  0  0  0  0  0  0  0
    0.8493   -1.2897    0.6670 C   0  0  0  0  0  0  0  0  0  0  0  0
    0.9099    0.2218    0.8238 C   0  0  2  0  0  0  0  0  0  0  0  0
   -0.4605    0.7250    0.8152 N   0  0  0  0  0  0  0  0  0  0  0  0
    1.7410    0.9337   -0.2474 C   0  0  0  0  0  0  0  0  0  0  0  0
    1.5033    2.0352   -0.7239 O   0  0  0  0  0  0  0  0  0  0  0  0
    2.8676    0.2810   -0.5969 O   0  0  0  0  0  0  0  0  0  0  0  0
   -3.0682    1.2073    0.7675 H   0  0  0  0  0  0  0  0  0  0  0  0
   -2.5285    1.7542   -0.8399 H   0  0  0  0  0  0  0  0  0  0  0  0
   -3.4347    0.2287   -0.6750 H   0  0  0  0  0  0  0  0  0  0  0  0
    0.6550   -1.4278   -1.4846 H   0  0  0  0  0  0  0  0  0  0  0  0
   -0.1269   -2.7231   -0.5910 H   0  0  0  0  0  0  0  0  0  0  0  0
    1.8491   -1.7353    0.6238 H   0  0  0  0  0  0  0  0  0  0  0  0
    0.3433   -1.7240    1.5395 H   0  0  0  0  0  0  0  0  0  0  0  0
    1.3670    0.4717    1.7881 H   0  0  0  0  0  0  0  0  0  0  0  0
   -0.5285    1.7362    0.9042 H   0  0  0  0  0  0  0  0  0  0  0  0
    3.2820    0.8652   -1.2676 H   0  0  0  0  0  0  0  0  0  0  0  0
  1  2  1  0
  2  3  2  0
  3  4  1  0
  4  5  1  0
  5  6  1  0
  6  7  1  0
  6  8  1  0
  8  9  2  0
  8 10  1  0
  7  2  1  0
  1 11  1  0
  1 12  1  0
  1 13  1  0
  4 14  1  0
  4 15  1  0
  5 16  1  0
  5 17  1  0
  6 18  1  1
  7 19  1  0
 10 20  1  0
M  END
$$$$
