
     RDKit          3D

 54 59  0  0  0  0  0  0  0  0999 V2000
   -0.8152    3.9193    0.5599 C   0  0  0  0  0  0  0  0  0  0  0  0
   -2.1486    3.4766   -0.0132 C   0  0  0  0  0  0  0  0  0  0  0  0
   -1.9226    2.0857   -0.3060 N   0  0  0  0  0  0  0  0  0  0  0  0
   -2.9655    1.1426   -0.5096 C   0  0  0  0  0  0  0  0  0  0  0  0
   -4.1644    1.5813   -1.0898 C   0  0  0  0  0  0  0  0  0  0  0  0
   -5.1703    0.6732   -1.4124 C   0  0  0  0  0  0  0  0  0  0  0  0
   -4.9974   -0.6835   -1.1482 C   0  0  0  0  0  0  0  0  0  0  0  0
   -3.8387   -1.1507   -0.5131 C   0  0  0  0  0  0  0  0  0  0  0  0
   -2.8213   -0.2324   -0.1511 C   0  0  0  0  0  0  0  0  0  0  0  0
   -1.7457   -0.7417    0.6115 C   0  0  0  0  0  0  0  0  0  0  0  0
   -1.5934   -2.1042    0.8684 C   0  0  0  0  0  0  0  0  0  0  0  0
   -2.5766   -2.9975    0.4691 C   0  0  0  0  0  0  0  0  0  0  0  0
   -3.6983   -2.5189   -0.2100 C   0  0  0  0  0  0  0  0  0  0  0  0
   -0.5127   -2.5553    1.5950 O   0  0  0  0  0  0  0  0  0  0  0  0
    0.6359   -2.7518    0.8520 C   0  0  0  0  0  0  0  0  0  0  0  0
    1.0698   -4.0497    0.5674 C   0  0  0  0  0  0  0  0  0  0  0  0
    2.2492   -4.2339   -0.1669 C   0  0  0  0  0  0  0  0  0  0  0  0
    2.9909   -3.1326   -0.6087 C   0  0  0  0  0  0  0  0  0  0  0  0
    2.5790   -1.8278   -0.3032 C   0  0  0  0  0  0  0  0  0  0  0  0
    1.4074   -1.6538    0.4481 C   0  0  0  0  0  0  0  0  0  0  0  0
    3.3412   -0.6333   -0.8326 C   0  0  0  0  0  0  0  0  0  0  0  0
    3.7897    0.2726    0.2170 N   0  0  0  0  0  0  0  0  0  0  0  0
    4.7226   -0.0701    1.1629 C   0  0  0  0  0  0  0  0  0  0  0  0
    5.0195    0.9390    1.9460 N   0  0  0  0  0  0  0  0  0  0  0  0
    4.2562    1.9785    1.4916 C   0  0  0  0  0  0  0  0  0  0  0  0
    3.4763    1.6033    0.4124 C   0  0  0  0  0  0  0  0  0  0  0  0
    2.5173    2.4163   -0.3868 C   0  0  0  0  0  0  0  0  0  0  0  0
    1.4196    2.8613    0.4727 N   0  0  0  0  0  0  0  0  0  0  0  0
    0.1972    3.1523   -0.2935 C   0  0  0  0  0  0  0  0  0  0  0  0
   -0.5775    1.8727   -0.6490 C   0  0  0  0  0  0  0  0  0  0  0  0
   -0.0733    0.8834   -1.1627 O   0  0  0  0  0  0  0  0  0  0  0  0
    0.3283   -5.1950    1.0033 C   0  0  0  0  0  0  0  0  0  0  0  0
   -0.2635   -6.1366    1.3365 N   0  0  0  0  0  0  0  0  0  0  0  0
   -0.7530    3.6158    1.6140 H   0  0  0  0  0  0  0  0  0  0  0  0
   -0.6730    5.0033    0.5149 H   0  0  0  0  0  0  0  0  0  0  0  0
   -2.3732    4.0107   -0.9434 H   0  0  0  0  0  0  0  0  0  0  0  0
   -2.9625    3.6060    0.7065 H   0  0  0  0  0  0  0  0  0  0  0  0
   -4.3135    2.6242   -1.3536 H   0  0  0  0  0  0  0  0  0  0  0  0
   -6.0833    1.0196   -1.8901 H   0  0  0  0  0  0  0  0  0  0  0  0
   -5.7907   -1.3760   -1.4240 H   0  0  0  0  0  0  0  0  0  0  0  0
   -1.0124   -0.0609    1.0283 H   0  0  0  0  0  0  0  0  0  0  0  0
   -2.4945   -4.0552    0.7028 H   0  0  0  0  0  0  0  0  0  0  0  0
   -4.4749   -3.2274   -0.4933 H   0  0  0  0  0  0  0  0  0  0  0  0
    2.5944   -5.2383   -0.4074 H   0  0  0  0  0  0  0  0  0  0  0  0
    3.8911   -3.3067   -1.1963 H   0  0  0  0  0  0  0  0  0  0  0  0
    1.0906   -0.6480    0.7067 H   0  0  0  0  0  0  0  0  0  0  0  0
    4.2463   -0.9502   -1.3656 H   0  0  0  0  0  0  0  0  0  0  0  0
    2.7191   -0.0958   -1.5511 H   0  0  0  0  0  0  0  0  0  0  0  0
    5.1491   -1.0627    1.2313 H   0  0  0  0  0  0  0  0  0  0  0  0
    4.2988    2.9535    1.9611 H   0  0  0  0  0  0  0  0  0  0  0  0
    2.1652    1.8647   -1.2590 H   0  0  0  0  0  0  0  0  0  0  0  0
    3.0380    3.2996   -0.7747 H   0  0  0  0  0  0  0  0  0  0  0  0
    1.2163    2.1247    1.1497 H   0  0  0  0  0  0  0  0  0  0  0  0
    0.4072    3.7099   -1.2144 H   0  0  0  0  0  0  0  0  0  0  0  0
  1  2  1  0
  2  3  1  0
  3  4  1  0
  4  5  2  0
  5  6  1  0
  6  7  2  0
  7  8  1  0
  8  9  2  0
  9 10  1  0
 10 11  2  0
 11 12  1  0
 12 13  2  0
 11 14  1  0
 14 15  1  0
 15 16  2  0
 16 17  1  0
 17 18  2  0
 18 19  1  0
 19 20  2  0
 19 21  1  0
 21 22  1  0
 22 23  1  0
 23 24  2  0
 24 25  1  0
 25 26  2  0
 26 27  1  0
 27 28  1  0
 28 29  1  0
 29 30  1  0
 30 31  2  0
 16 32  1  0
 32 33  3  0
 29  1  1  0
 30  3  1  0
  9  4  1  0
 13  8  1  0
 20 15  1  0
 26 22  1  0
  1 34  1  0
  1 35  1  0
  2 36  1  0
  2 37  1  0
  5 38  1  0
  6 39  1  0
  7 40  1  0
 10 41  1  0
 12 42  1  0
 13 43  1  0
 17 44  1  0
 18 45  1  0
 20 46  1  0
 21 47  1  0
 21 48  1  0
 23 49  1  0
 25 50  1  0
 27 51  1  0
 27 52  1  0
 28 53  1  0
 29 54  1  0
M  END
$$$$
