
     RDKit          3D

101108  0  0  0  0  0  0  0  0999 V2000
    1.6698   -0.6972   -2.5802 C   0  0  0  0  0  0  0  0  0  0  0  0
    0.8219    0.1499   -1.8746 C   0  0  0  0  0  0  0  0  0  0  0  0
    1.2797    0.7863   -0.7057 C   0  0  0  0  0  0  0  0  0  0  0  0
    2.6175    0.6081   -0.3013 C   0  0  0  0  0  0  0  0  0  0  0  0
    3.4498   -0.3218   -0.9697 C   0  0  0  0  0  0  0  0  0  0  0  0
    2.9592   -0.9618   -2.1166 C   0  0  0  0  0  0  0  0  0  0  0  0
    4.6751   -0.5737   -0.4134 O   0  0  0  0  0  0  0  0  0  0  0  0
    5.6601   -1.3538   -1.0941 C   0  0  0  0  0  0  0  0  0  0  0  0
    6.5331   -0.3847   -1.9193 C   0  0  0  0  0  0  0  0  0  0  0  0
    7.7181   -1.1197   -2.5453 C   0  0  0  0  0  0  0  0  0  0  0  0
    8.4873   -1.9461   -1.5000 C   0  0  0  0  0  0  0  0  0  0  0  0
    7.5449   -2.8041   -0.6334 C   0  0  0  0  0  0  0  0  0  0  0  0
    6.4609   -2.0217   -0.0961 O   0  0  0  0  0  0  0  0  0  0  0  0
    7.0090   -4.0829   -1.3086 C   0  0  0  0  0  0  0  0  0  0  0  0
    6.1103   -4.7479   -0.4127 O   0  0  0  0  0  0  0  0  0  0  0  0
    9.4643   -2.7500   -2.1717 O   0  0  0  0  0  0  0  0  0  0  0  0
    7.2639   -1.9791   -3.5987 O   0  0  0  0  0  0  0  0  0  0  0  0
    7.0230    0.6862   -1.0885 O   0  0  0  0  0  0  0  0  0  0  0  0
    3.1521    1.5091    0.7771 C   0  0  0  0  0  0  0  0  0  0  0  0
    4.2528    1.3606    1.2964 O   0  0  0  0  0  0  0  0  0  0  0  0
    2.3458    2.6988    1.1593 C   0  0  0  0  0  0  0  0  0  0  0  0
    1.0040    2.7714    0.7704 C   0  0  0  0  0  0  0  0  0  0  0  0
    0.2995    1.5600    0.1759 C   0  0  0  0  0  0  0  0  0  0  0  0
   -0.3315    0.6135    1.3076 C   0  0  0  0  0  0  0  0  0  0  0  0
   -1.1312   -0.5599    0.7211 C   0  0  0  0  0  0  0  0  0  0  0  0
   -2.4976   -0.4154    0.4120 C   0  0  0  0  0  0  0  0  0  0  0  0
   -3.2346   -1.4646   -0.1862 C   0  0  0  0  0  0  0  0  0  0  0  0
   -2.5784   -2.6635   -0.4613 C   0  0  0  0  0  0  0  0  0  0  0  0
   -1.2293   -2.8269   -0.1180 C   0  0  0  0  0  0  0  0  0  0  0  0
   -0.5100   -1.7923    0.4772 C   0  0  0  0  0  0  0  0  0  0  0  0
   -4.5624   -1.2287   -0.4029 O   0  0  0  0  0  0  0  0  0  0  0  0
   -5.4212   -2.1315   -1.1038 C   0  0  0  0  0  0  0  0  0  0  0  0
   -5.6970   -1.4886   -2.4925 C   0  0  0  0  0  0  0  0  0  0  0  0
   -7.0924   -0.8523   -2.5219 C   0  0  0  0  0  0  0  0  0  0  0  0
   -8.1568   -1.9037   -2.1727 C   0  0  0  0  0  0  0  0  0  0  0  0
   -7.7900   -2.7119   -0.9169 C   0  0  0  0  0  0  0  0  0  0  0  0
   -6.5979   -2.2208   -0.2911 O   0  0  0  0  0  0  0  0  0  0  0  0
   -7.7356   -4.2382   -1.1319 C   0  0  0  0  0  0  0  0  0  0  0  0
   -6.7507   -4.6463   -2.0780 O   0  0  0  0  0  0  0  0  0  0  0  0
   -9.4150   -1.2322   -1.9724 O   0  0  0  0  0  0  0  0  0  0  0  0
   -7.2079    0.2905   -1.6563 O   0  0  0  0  0  0  0  0  0  0  0  0
   -5.5959   -2.4485   -3.5639 O   0  0  0  0  0  0  0  0  0  0  0  0
   -3.1558    0.8513    0.8313 C   0  0  0  0  0  0  0  0  0  0  0  0
   -4.1372    1.3449    0.2802 O   0  0  0  0  0  0  0  0  0  0  0  0
   -2.5830    1.5352    2.0143 C   0  0  0  0  0  0  0  0  0  0  0  0
   -1.2216    1.3687    2.2950 C   0  0  0  0  0  0  0  0  0  0  0  0
   -0.6870    1.9596    3.4546 C   0  0  0  0  0  0  0  0  0  0  0  0
   -1.4967    2.7497    4.2878 C   0  0  0  0  0  0  0  0  0  0  0  0
   -2.8524    2.9204    3.9825 C   0  0  0  0  0  0  0  0  0  0  0  0
   -3.3939    2.3037    2.8563 C   0  0  0  0  0  0  0  0  0  0  0  0
   -4.7296    2.4751    2.6412 O   0  0  0  0  0  0  0  0  0  0  0  0
   -0.9489    3.4869    5.4468 C   0  0  0  0  0  0  0  0  0  0  0  0
   -1.5384    4.2998    6.1241 O   0  0  0  0  0  0  0  0  0  0  0  0
    0.3470    3.2035    5.6716 O   0  0  0  0  0  0  0  0  0  0  0  0
    0.2728    3.9549    1.0406 C   0  0  0  0  0  0  0  0  0  0  0  0
    0.8361    4.9933    1.7872 C   0  0  0  0  0  0  0  0  0  0  0  0
    2.1673    4.8902    2.1916 C   0  0  0  0  0  0  0  0  0  0  0  0
    2.9174    3.7543    1.8769 C   0  0  0  0  0  0  0  0  0  0  0  0
    4.1969    3.7366    2.3596 O   0  0  0  0  0  0  0  0  0  0  0  0
    0.0204    6.1924    2.1785 C   0  0  0  0  0  0  0  0  0  0  0  0
    0.1160    7.1842    1.1699 O   0  0  0  0  0  0  0  0  0  0  0  0
    1.3092   -1.2049   -3.4778 H   0  0  0  0  0  0  0  0  0  0  0  0
   -0.2007    0.2874   -2.2210 H   0  0  0  0  0  0  0  0  0  0  0  0
    3.5508   -1.6648   -2.6923 H   0  0  0  0  0  0  0  0  0  0  0  0
    5.2059   -2.1347   -1.7116 H   0  0  0  0  0  0  0  0  0  0  0  0
    5.9176    0.0843   -2.6976 H   0  0  0  0  0  0  0  0  0  0  0  0
    8.4111   -0.4005   -3.0013 H   0  0  0  0  0  0  0  0  0  0  0  0
    9.0176   -1.2428   -0.8426 H   0  0  0  0  0  0  0  0  0  0  0  0
    8.1143   -3.1407    0.2415 H   0  0  0  0  0  0  0  0  0  0  0  0
    6.4290   -3.8820   -2.2155 H   0  0  0  0  0  0  0  0  0  0  0  0
    7.8150   -4.7782   -1.5593 H   0  0  0  0  0  0  0  0  0  0  0  0
    5.7476   -4.0654    0.1913 H   0  0  0  0  0  0  0  0  0  0  0  0
   10.2410   -2.8044   -1.5706 H   0  0  0  0  0  0  0  0  0  0  0  0
    8.0614   -2.4778   -3.8868 H   0  0  0  0  0  0  0  0  0  0  0  0
    6.3616    0.8055   -0.3676 H   0  0  0  0  0  0  0  0  0  0  0  0
   -0.4966    1.9427   -0.4784 H   0  0  0  0  0  0  0  0  0  0  0  0
    0.4824    0.1725    1.8946 H   0  0  0  0  0  0  0  0  0  0  0  0
   -3.0771   -3.5148   -0.9170 H   0  0  0  0  0  0  0  0  0  0  0  0
   -0.7379   -3.7773   -0.3225 H   0  0  0  0  0  0  0  0  0  0  0  0
    0.5361   -1.9549    0.7294 H   0  0  0  0  0  0  0  0  0  0  0  0
   -5.0044   -3.1404   -1.1933 H   0  0  0  0  0  0  0  0  0  0  0  0
   -4.9347   -0.7261   -2.7061 H   0  0  0  0  0  0  0  0  0  0  0  0
   -7.3121   -0.4712   -3.5218 H   0  0  0  0  0  0  0  0  0  0  0  0
   -8.3104   -2.5726   -3.0235 H   0  0  0  0  0  0  0  0  0  0  0  0
   -8.5806   -2.5582   -0.1749 H   0  0  0  0  0  0  0  0  0  0  0  0
   -8.7076   -4.6296   -1.4529 H   0  0  0  0  0  0  0  0  0  0  0  0
   -7.4639   -4.7188   -0.1862 H   0  0  0  0  0  0  0  0  0  0  0  0
   -7.0992   -4.4998   -2.9805 H   0  0  0  0  0  0  0  0  0  0  0  0
   -9.1804   -0.3525   -1.5951 H   0  0  0  0  0  0  0  0  0  0  0  0
   -6.6427    0.1408   -0.8681 H   0  0  0  0  0  0  0  0  0  0  0  0
   -5.8116   -1.9796   -4.3948 H   0  0  0  0  0  0  0  0  0  0  0  0
    0.3693    1.8414    3.6873 H   0  0  0  0  0  0  0  0  0  0  0  0
   -3.4927    3.5273    4.6126 H   0  0  0  0  0  0  0  0  0  0  0  0
   -4.8968    2.3762    1.6723 H   0  0  0  0  0  0  0  0  0  0  0  0
    0.5779    3.8057    6.4106 H   0  0  0  0  0  0  0  0  0  0  0  0
   -0.7680    4.0234    0.7207 H   0  0  0  0  0  0  0  0  0  0  0  0
    2.6336    5.6958    2.7578 H   0  0  0  0  0  0  0  0  0  0  0  0
    4.6197    2.8973    2.0533 H   0  0  0  0  0  0  0  0  0  0  0  0
    0.3834    6.6197    3.1211 H   0  0  0  0  0  0  0  0  0  0  0  0
   -1.0345    5.9339    2.3387 H   0  0  0  0  0  0  0  0  0  0  0  0
   -0.4289    6.8691    0.4218 H   0  0  0  0  0  0  0  0  0  0  0  0
  1  2  2  0
  2  3  1  0
  3  4  2  0
  4  5  1  0
  5  6  2  0
  5  7  1  0
  7  8  1  0
  8  9  1  0
  9 10  1  0
 10 11  1  0
 11 12  1  0
 12 13  1  0
 12 14  1  0
 14 15  1  0
 11 16  1  0
 10 17  1  0
  9 18  1  0
  4 19  1  0
 19 20  2  0
 19 21  1  0
 21 22  2  0
 22 23  1  0
 23 24  1  0
 24 25  1  0
 25 26  2  0
 26 27  1  0
 27 28  2  0
 28 29  1  0
 29 30  2  0
 27 31  1  0
 31 32  1  0
 32 33  1  0
 33 34  1  0
 34 35  1  0
 35 36  1  0
 36 37  1  0
 36 38  1  0
 38 39  1  0
 35 40  1  0
 34 41  1  0
 33 42  1  0
 26 43  1  0
 43 44  2  0
 43 45  1  0
 45 46  2  0
 46 47  1  0
 47 48  2  0
 48 49  1  0
 49 50  2  0
 50 51  1  0
 48 52  1  0
 52 53  2  0
 52 54  1  0
 22 55  1  0
 55 56  2  0
 56 57  1  0
 57 58  2  0
 58 59  1  0
 56 60  1  0
 60 61  1  0
  6  1  1  0
 23  3  1  0
 13  8  1  0
 58 21  1  0
 46 24  1  0
 30 25  1  0
 37 32  1  0
 50 45  1  0
  1 62  1  0
  2 63  1  0
  6 64  1  0
  8 65  1  0
  9 66  1  0
 10 67  1  0
 11 68  1  0
 12 69  1  0
 14 70  1  0
 14 71  1  0
 15 72  1  0
 16 73  1  0
 17 74  1  0
 18 75  1  0
 23 76  1  0
 24 77  1  0
 28 78  1  0
 29 79  1  0
 30 80  1  0
 32 81  1  0
 33 82  1  0
 34 83  1  0
 35 84  1  0
 36 85  1  0
 38 86  1  0
 38 87  1  0
 39 88  1  0
 40 89  1  0
 41 90  1  0
 42 91  1  0
 47 92  1  0
 49 93  1  0
 51 94  1  0
 54 95  1  0
 55 96  1  0
 57 97  1  0
 59 98  1  0
 60 99  1  0
 60100  1  0
 61101  1  0
M  END
$$$$
