
     RDKit          3D

 69 70  0  0  0  0  0  0  0  0999 V2000
   -6.2174   -0.5149   -0.9912 C   0  0  0  0  0  0  0  0  0  0  0  0
   -5.4336   -0.8532    0.0809 C   0  0  0  0  0  0  0  0  0  0  0  0
   -5.9778   -0.8487    1.3426 C   0  0  0  0  0  0  0  0  0  0  0  0
   -7.2980   -0.5107    1.5555 C   0  0  0  0  0  0  0  0  0  0  0  0
   -8.0887   -0.1689    0.4689 C   0  0  0  0  0  0  0  0  0  0  0  0
   -7.5284   -0.1790   -0.7824 C   0  0  0  0  0  0  0  0  0  0  0  0
   -8.2927    0.1591   -1.8992 O   0  0  0  0  0  0  0  0  0  0  0  0
   -9.4202    0.1760    0.6486 O   0  0  0  0  0  0  0  0  0  0  0  0
   -7.8571   -0.5037    2.8304 O   0  0  0  0  0  0  0  0  0  0  0  0
   -4.0176   -1.2202   -0.1102 C   0  0  0  0  0  0  0  0  0  0  0  0
   -3.3240   -1.5250    0.8798 O   0  0  0  0  0  0  0  0  0  0  0  0
   -3.4366   -1.2378   -1.3414 O   0  0  0  0  0  0  0  0  0  0  0  0
   -2.1599   -1.5343   -1.7531 C   0  0  0  0  0  0  0  0  0  0  0  0
   -1.0308   -0.7183   -1.3210 C   0  0  0  0  0  3  0  0  0  0  0  0
   -0.2134   -1.0980   -0.1787 C   0  0  2  0  0  0  0  0  0  0  0  0
    0.9702   -0.1289    0.0377 C   0  0  1  0  0  0  0  0  0  0  0  0
    1.9872   -0.3986   -1.0032 C   0  0  2  0  0  0  0  0  0  0  0  0
    3.2804    0.3587   -0.6678 C   0  0  0  0  0  3  0  0  0  0  0  0
    4.3402   -0.4868   -0.3467 O   0  0  0  0  0  0  0  0  0  0  0  0
    4.7765   -1.4079   -1.2858 C   0  0  0  0  0  0  0  0  0  0  0  0
    4.2406   -1.4988   -2.4172 O   0  0  0  0  0  0  0  0  0  0  0  0
    5.8921   -2.2796   -0.9141 C   0  0  0  0  0  0  0  0  0  0  0  0
    6.3482   -3.2070   -1.8318 C   0  0  0  0  0  0  0  0  0  0  0  0
    7.3921   -4.0179   -1.4743 C   0  0  0  0  0  0  0  0  0  0  0  0
    8.0101   -3.9542   -0.2439 C   0  0  0  0  0  0  0  0  0  0  0  0
    7.5360   -3.0258    0.6430 C   0  0  0  0  0  0  0  0  0  0  0  0
    6.4868   -2.1893    0.3241 C   0  0  0  0  0  0  0  0  0  0  0  0
    8.1447   -2.9374    1.9032 O   0  0  0  0  0  0  0  0  0  0  0  0
    9.0563   -4.8240    0.0072 O   0  0  0  0  0  0  0  0  0  0  0  0
    7.8388   -4.9437   -2.4065 O   0  0  0  0  0  0  0  0  0  0  0  0
    1.6063   -0.2016   -2.3029 O   0  0  0  0  0  0  0  0  0  0  0  0
    0.4453    1.1467    0.1226 O   0  0  0  0  0  0  0  0  0  0  0  0
    0.4170    1.9662    1.2090 C   0  0  0  0  0  0  0  0  0  0  0  0
    0.9182    1.5434    2.2744 O   0  0  0  0  0  0  0  0  0  0  0  0
   -0.1584    3.3103    1.2236 C   0  0  0  0  0  0  0  0  0  0  0  0
   -0.7345    3.8512    0.0823 C   0  0  0  0  0  0  0  0  0  0  0  0
   -1.2724    5.1180    0.1091 C   0  0  0  0  0  0  0  0  0  0  0  0
   -1.2699    5.9019    1.2413 C   0  0  0  0  0  0  0  0  0  0  0  0
   -0.6969    5.3584    2.3688 C   0  0  0  0  0  0  0  0  0  0  0  0
   -0.1549    4.0934    2.3584 C   0  0  0  0  0  0  0  0  0  0  0  0
   -0.6897    6.1510    3.5295 O   0  0  0  0  0  0  0  0  0  0  0  0
   -1.8296    7.1737    1.2025 O   0  0  0  0  0  0  0  0  0  0  0  0
   -1.8466    5.6396   -1.0540 O   0  0  0  0  0  0  0  0  0  0  0  0
    0.4017   -2.3672   -0.2699 O   0  0  0  0  0  0  0  0  0  0  0  0
    0.0000    0.0000    0.0000 Ce  0  0  0  0  0 15  0  0  0  0  0  0
   -5.8132   -0.5110   -1.9913 H   0  0  0  0  0  0  0  0  0  0  0  0
   -5.3540   -1.1193    2.2082 H   0  0  0  0  0  0  0  0  0  0  0  0
   -9.0948    0.7429   -1.7493 H   0  0  0  0  0  0  0  0  0  0  0  0
  -10.0972   -0.5848    0.6872 H   0  0  0  0  0  0  0  0  0  0  0  0
   -7.9053   -1.3810    3.3645 H   0  0  0  0  0  0  0  0  0  0  0  0
   -2.0036   -2.6488   -1.5532 H   0  0  0  0  0  0  0  0  0  0  0  0
   -2.1824   -1.5035   -2.8966 H   0  0  0  0  0  0  0  0  0  0  0  0
   -0.6767    0.0816   -1.9747 H   0  0  0  0  0  0  0  0  0  0  0  0
   -0.7573   -1.0316    0.8057 H   0  0  0  0  0  0  0  0  0  0  0  0
    1.4154   -0.4857    1.0162 H   0  0  0  0  0  0  0  0  0  0  0  0
    2.2726   -1.4880   -0.8962 H   0  0  0  0  0  0  0  0  0  0  0  0
    3.0501    1.0862    0.1347 H   0  0  0  0  0  0  0  0  0  0  0  0
    5.8538   -3.2432   -2.7884 H   0  0  0  0  0  0  0  0  0  0  0  0
    6.1139   -1.4460    1.0465 H   0  0  0  0  0  0  0  0  0  0  0  0
    8.9513   -2.3347    2.0621 H   0  0  0  0  0  0  0  0  0  0  0  0
    9.7841   -4.8788   -0.7225 H   0  0  0  0  0  0  0  0  0  0  0  0
    7.1891   -5.6662   -2.6739 H   0  0  0  0  0  0  0  0  0  0  0  0
    1.3050   -1.0602   -2.6890 H   0  0  0  0  0  0  0  0  0  0  0  0
   -0.7337    3.2333   -0.8013 H   0  0  0  0  0  0  0  0  0  0  0  0
    0.2817    3.7085    3.2588 H   0  0  0  0  0  0  0  0  0  0  0  0
    0.2391    6.2536    3.9520 H   0  0  0  0  0  0  0  0  0  0  0  0
   -2.8004    7.2545    1.4796 H   0  0  0  0  0  0  0  0  0  0  0  0
   -1.2412    6.2775   -1.5930 H   0  0  0  0  0  0  0  0  0  0  0  0
    1.0643   -2.4216    0.4658 H   0  0  0  0  0  0  0  0  0  0  0  0
  1  2  2  0
  2  3  1  0
  3  4  2  0
  4  5  1  0
  5  6  2  0
  6  7  1  0
  5  8  1  0
  4  9  1  0
  2 10  1  0
 10 11  2  0
 10 12  1  0
 12 13  1  0
 13 14  1  0
 14 15  1  0
 15 16  1  0
 16 17  1  0
 17 18  1  0
 18 19  1  0
 19 20  1  0
 20 21  2  0
 20 22  1  0
 22 23  2  0
 23 24  1  0
 24 25  2  0
 25 26  1  0
 26 27  2  0
 26 28  1  0
 25 29  1  0
 24 30  1  0
 17 31  1  0
 16 32  1  0
 32 33  1  0
 33 34  2  0
 33 35  1  0
 35 36  2  0
 36 37  1  0
 37 38  2  0
 38 39  1  0
 39 40  2  0
 39 41  1  0
 38 42  1  0
 37 43  1  0
 15 44  1  0
  6  1  1  0
 27 22  1  0
 40 35  1  0
  1 46  1  0
  3 47  1  0
  7 48  1  0
  8 49  1  0
  9 50  1  0
 13 51  1  0
 13 52  1  0
 14 53  1  0
 15 54  1  1
 16 55  1  1
 17 56  1  6
 18 57  1  0
 23 58  1  0
 27 59  1  0
 28 60  1  0
 29 61  1  0
 30 62  1  0
 31 63  1  0
 36 64  1  0
 40 65  1  0
 41 66  1  0
 42 67  1  0
 43 68  1  0
 44 69  1  0
M  CHG  2  14  -1  18  -1
M  END
$$$$
