
     RDKit          3D

 33 32  0  0  0  0  0  0  0  0999 V2000
   -1.1063   -0.3717   -1.5130 C   0  0  0  0  0  0  0  0  0  0  0  0
   -1.9894    0.0679   -0.3286 C   0  0  0  0  0  0  0  0  0  0  0  0
   -2.7888   -1.1523    0.1714 C   0  0  0  0  0  0  0  0  0  0  0  0
   -3.0025    1.1241   -0.8303 C   0  0  0  0  0  0  0  0  0  0  0  0
   -2.3267    2.2368   -1.4091 O   0  0  0  0  0  0  0  0  0  0  0  0
   -1.1445    0.6900    0.8184 C   0  0  0  0  0  0  0  0  0  0  0  0
   -2.0060    1.0632    1.9091 O   0  0  0  0  0  0  0  0  0  0  0  0
   -0.0514   -0.2394    1.3853 C   0  0  0  0  0  0  0  0  0  0  0  0
   -0.2301   -0.8597    2.4345 O   0  0  0  0  0  0  0  0  0  0  0  0
    1.1101   -0.3010    0.6576 N   0  0  0  0  0  0  0  0  0  0  0  0
    2.2756   -1.0037    1.1452 C   0  0  0  0  0  0  0  0  0  0  0  0
    3.3601   -1.1128    0.0757 C   0  0  0  0  0  0  0  0  0  0  0  0
    3.9471    0.2408   -0.3150 C   0  0  0  0  0  0  0  0  0  0  0  0
    2.9391    1.0700   -0.8871 O   0  0  0  0  0  0  0  0  0  0  0  0
   -1.7210   -0.6545   -2.3757 H   0  0  0  0  0  0  0  0  0  0  0  0
   -0.4342    0.4310   -1.8349 H   0  0  0  0  0  0  0  0  0  0  0  0
   -0.4959   -1.2452   -1.2613 H   0  0  0  0  0  0  0  0  0  0  0  0
   -2.1255   -1.9428    0.5383 H   0  0  0  0  0  0  0  0  0  0  0  0
   -3.3932   -1.5826   -0.6357 H   0  0  0  0  0  0  0  0  0  0  0  0
   -3.4727   -0.8834    0.9836 H   0  0  0  0  0  0  0  0  0  0  0  0
   -3.6582    0.6996   -1.5992 H   0  0  0  0  0  0  0  0  0  0  0  0
   -3.6381    1.4899   -0.0164 H   0  0  0  0  0  0  0  0  0  0  0  0
   -3.0037    2.9131   -1.5856 H   0  0  0  0  0  0  0  0  0  0  0  0
   -0.6532    1.6108    0.4826 H   0  0  0  0  0  0  0  0  0  0  0  0
   -1.8861    0.3674    2.5892 H   0  0  0  0  0  0  0  0  0  0  0  0
    1.2921    0.4329   -0.0279 H   0  0  0  0  0  0  0  0  0  0  0  0
    1.9633   -2.0034    1.4674 H   0  0  0  0  0  0  0  0  0  0  0  0
    2.6473   -0.4714    2.0280 H   0  0  0  0  0  0  0  0  0  0  0  0
    2.9350   -1.5919   -0.8150 H   0  0  0  0  0  0  0  0  0  0  0  0
    4.1660   -1.7549    0.4484 H   0  0  0  0  0  0  0  0  0  0  0  0
    4.3664    0.7524    0.5571 H   0  0  0  0  0  0  0  0  0  0  0  0
    4.7401    0.1024   -1.0568 H   0  0  0  0  0  0  0  0  0  0  0  0
    3.3851    1.8782   -1.2001 H   0  0  0  0  0  0  0  0  0  0  0  0
  1  2  1  0
  2  3  1  0
  2  4  1  0
  4  5  1  0
  2  6  1  0
  6  7  1  0
  6  8  1  0
  8  9  2  0
  8 10  1  0
 10 11  1  0
 11 12  1  0
 12 13  1  0
 13 14  1  0
  1 15  1  0
  1 16  1  0
  1 17  1  0
  3 18  1  0
  3 19  1  0
  3 20  1  0
  4 21  1  0
  4 22  1  0
  5 23  1  0
  6 24  1  0
  7 25  1  0
 10 26  1  0
 11 27  1  0
 11 28  1  0
 12 29  1  0
 12 30  1  0
 13 31  1  0
 13 32  1  0
 14 33  1  0
M  END
$$$$
