
     RDKit          3D

 49 50  0  0  0  0  0  0  0  0999 V2000
    4.4343    0.8392   -1.8229 C   0  0  0  0  0  0  0  0  0  0  0  0
    3.3612    1.2001   -0.8039 C   0  0  0  0  0  0  0  0  0  0  0  0
    2.9678    0.0443    0.1329 C   0  0  0  0  0  0  0  0  0  0  0  0
    2.3499   -1.1643   -0.5923 C   0  0  0  0  0  0  0  0  0  0  0  0
    1.1102   -0.8824   -1.4447 C   0  0  0  0  0  0  0  0  0  0  0  0
   -0.0548   -0.2915   -0.6476 C   0  0  0  0  0  0  0  0  0  0  0  0
   -1.3036   -0.1425   -1.5235 C   0  0  0  0  0  0  0  0  0  0  0  0
   -2.4784    0.4925   -0.7668 C   0  0  1  0  0  0  0  0  0  0  0  0
   -3.6548    0.7946   -1.7129 C   0  0  0  0  0  0  0  0  0  0  0  0
   -4.8991    0.5880   -0.8618 C   0  0  0  0  0  0  0  0  0  0  0  0
   -4.5319   -0.6553   -0.0601 C   0  0  1  0  0  0  0  0  0  0  0  0
   -3.0685   -0.4159    0.3361 C   0  0  2  0  0  0  0  0  0  0  0  0
   -3.1281    0.2718    1.7057 C   0  0  0  0  0  0  0  0  0  0  0  0
   -4.4593   -0.1669    2.2527 C   0  0  0  0  0  0  0  0  0  0  0  0
   -4.8104    0.0224    3.4110 O   0  0  0  0  0  0  0  0  0  0  0  0
   -5.3143   -0.8584    1.2269 C   0  0  0  0  0  0  0  0  0  0  0  0
    4.1136   -0.4611    0.8354 O   0  0  0  0  0  0  0  0  0  0  0  0
    4.5233    0.3510    1.9327 C   0  0  0  0  0  0  0  0  0  0  0  0
    5.6816   -0.3397    2.6258 C   0  0  0  0  0  0  0  0  0  0  0  0
    5.3442    0.4782   -1.3340 H   0  0  0  0  0  0  0  0  0  0  0  0
    4.6997    1.7220   -2.4136 H   0  0  0  0  0  0  0  0  0  0  0  0
    4.0848    0.0701   -2.5177 H   0  0  0  0  0  0  0  0  0  0  0  0
    3.7401    2.0374   -0.2070 H   0  0  0  0  0  0  0  0  0  0  0  0
    2.4775    1.5804   -1.3277 H   0  0  0  0  0  0  0  0  0  0  0  0
    2.2420    0.4121    0.8685 H   0  0  0  0  0  0  0  0  0  0  0  0
    2.0971   -1.9236    0.1606 H   0  0  0  0  0  0  0  0  0  0  0  0
    3.1108   -1.6445   -1.2209 H   0  0  0  0  0  0  0  0  0  0  0  0
    0.7893   -1.8294   -1.8969 H   0  0  0  0  0  0  0  0  0  0  0  0
    1.3678   -0.2184   -2.2776 H   0  0  0  0  0  0  0  0  0  0  0  0
   -0.2695   -0.9367    0.2114 H   0  0  0  0  0  0  0  0  0  0  0  0
    0.2225    0.6924   -0.2531 H   0  0  0  0  0  0  0  0  0  0  0  0
   -1.0567    0.4846   -2.3897 H   0  0  0  0  0  0  0  0  0  0  0  0
   -1.5986   -1.1239   -1.9159 H   0  0  0  0  0  0  0  0  0  0  0  0
   -2.1307    1.4400   -0.3355 H   0  0  0  0  0  0  0  0  0  0  0  0
   -3.6015    1.8103   -2.1173 H   0  0  0  0  0  0  0  0  0  0  0  0
   -3.6672    0.0984   -2.5607 H   0  0  0  0  0  0  0  0  0  0  0  0
   -5.0688    1.4559   -0.2136 H   0  0  0  0  0  0  0  0  0  0  0  0
   -5.7951    0.4378   -1.4712 H   0  0  0  0  0  0  0  0  0  0  0  0
   -4.6220   -1.5365   -0.7081 H   0  0  0  0  0  0  0  0  0  0  0  0
   -2.5459   -1.3752    0.4282 H   0  0  0  0  0  0  0  0  0  0  0  0
   -3.1282    1.3637    1.6386 H   0  0  0  0  0  0  0  0  0  0  0  0
   -2.3146   -0.0657    2.3528 H   0  0  0  0  0  0  0  0  0  0  0  0
   -6.3144   -0.4207    1.1863 H   0  0  0  0  0  0  0  0  0  0  0  0
   -5.3695   -1.9195    1.4878 H   0  0  0  0  0  0  0  0  0  0  0  0
    3.6925    0.4735    2.6359 H   0  0  0  0  0  0  0  0  0  0  0  0
    4.8452    1.3349    1.5796 H   0  0  0  0  0  0  0  0  0  0  0  0
    6.5158   -0.4837    1.9310 H   0  0  0  0  0  0  0  0  0  0  0  0
    5.3840   -1.3333    2.9768 H   0  0  0  0  0  0  0  0  0  0  0  0
    6.0309    0.2467    3.4802 H   0  0  0  0  0  0  0  0  0  0  0  0
  1  2  1  0
  2  3  1  0
  3  4  1  0
  4  5  1  0
  5  6  1  0
  6  7  1  0
  7  8  1  0
  8  9  1  0
  9 10  1  0
 10 11  1  0
 11 12  1  0
 12 13  1  0
 13 14  1  0
 14 15  2  0
 14 16  1  0
  3 17  1  0
 17 18  1  0
 18 19  1  0
 12  8  1  0
 16 11  1  0
  1 20  1  0
  1 21  1  0
  1 22  1  0
  2 23  1  0
  2 24  1  0
  3 25  1  0
  4 26  1  0
  4 27  1  0
  5 28  1  0
  5 29  1  0
  6 30  1  0
  6 31  1  0
  7 32  1  0
  7 33  1  0
  8 34  1  1
  9 35  1  0
  9 36  1  0
 10 37  1  0
 10 38  1  0
 11 39  1  6
 12 40  1  1
 13 41  1  0
 13 42  1  0
 16 43  1  0
 16 44  1  0
 18 45  1  0
 18 46  1  0
 19 47  1  0
 19 48  1  0
 19 49  1  0
M  END
$$$$
