
     RDKit          3D

 57 61  0  0  0  0  0  0  0  0999 V2000
   -2.5755    1.8145   -0.6296 C   0  0  0  0  0  0  0  0  0  0  0  0
   -2.4940    0.3272   -0.2103 C   0  0  2  0  0  0  0  0  0  0  0  0
   -3.2363   -0.5482   -1.2636 C   0  0  0  0  0  0  0  0  0  0  0  0
   -4.7547   -0.3752   -1.2711 C   0  0  0  0  0  0  0  0  0  0  0  0
   -5.3491   -0.6259    0.1116 C   0  0  1  0  0  0  0  0  0  0  0  0
   -4.7033    0.2800    1.1601 C   0  0  0  0  0  0  0  0  0  0  0  0
   -3.1919    0.1769    1.1503 C   0  0  0  0  0  0  0  0  0  0  0  0
   -2.5226   -0.0432    2.2966 C   0  0  0  0  0  0  0  0  0  0  0  0
   -1.0336   -0.1362    2.4102 C   0  0  0  0  0  0  0  0  0  0  0  0
   -0.2945    0.3674    1.1616 C   0  0  2  0  0  0  0  0  0  0  0  0
   -0.9943   -0.1650   -0.1235 C   0  0  2  0  0  0  0  0  0  0  0  0
   -0.1642    0.0836   -1.4131 C   0  0  0  0  0  0  0  0  0  0  0  0
    1.3291   -0.2772   -1.2873 C   0  0  0  0  0  0  0  0  0  0  0  0
    1.9712    0.4003   -0.0654 C   0  0  1  0  0  0  0  0  0  0  0  0
    1.1641   -0.0962    1.1624 C   0  0  1  0  0  0  0  0  0  0  0  0
    2.0535    0.2173    2.3602 C   0  0  0  0  0  0  0  0  0  0  0  0
    3.3928   -0.0799    1.7454 C   0  0  0  0  0  0  0  0  0  0  0  0
    3.3534   -0.0507    0.3957 C   0  0  0  0  0  0  0  0  0  0  0  0
    4.4930   -0.3629   -0.4789 C   0  0  0  0  0  0  0  0  0  0  0  0
    4.6788    0.2180   -1.7316 C   0  0  0  0  0  0  0  0  0  0  0  0
    5.7055   -0.0574   -2.5775 N   0  0  0  0  0  0  0  0  0  0  0  0
    6.6059   -0.9675   -2.1584 C   0  0  0  0  0  0  0  0  0  0  0  0
    6.5248   -1.6140   -0.9394 C   0  0  0  0  0  0  0  0  0  0  0  0
    5.4556   -1.3072   -0.0976 C   0  0  0  0  0  0  0  0  0  0  0  0
    1.9736    1.9423   -0.2218 C   0  0  0  0  0  0  0  0  0  0  0  0
   -6.7519   -0.3717    0.0756 O   0  0  0  0  0  0  0  0  0  0  0  0
   -1.9761    2.4553    0.0251 H   0  0  0  0  0  0  0  0  0  0  0  0
   -2.2282    1.9650   -1.6568 H   0  0  0  0  0  0  0  0  0  0  0  0
   -3.5996    2.2010   -0.5966 H   0  0  0  0  0  0  0  0  0  0  0  0
   -3.0202   -1.6090   -1.0769 H   0  0  0  0  0  0  0  0  0  0  0  0
   -2.8625   -0.3304   -2.2712 H   0  0  0  0  0  0  0  0  0  0  0  0
   -5.0285    0.6265   -1.6244 H   0  0  0  0  0  0  0  0  0  0  0  0
   -5.2013   -1.0693   -1.9939 H   0  0  0  0  0  0  0  0  0  0  0  0
   -5.2080   -1.6760    0.3957 H   0  0  0  0  0  0  0  0  0  0  0  0
   -5.0019    1.3218    0.9876 H   0  0  0  0  0  0  0  0  0  0  0  0
   -5.1174    0.0282    2.1451 H   0  0  0  0  0  0  0  0  0  0  0  0
   -3.0720   -0.1610    3.2291 H   0  0  0  0  0  0  0  0  0  0  0  0
   -0.7090    0.4494    3.2789 H   0  0  0  0  0  0  0  0  0  0  0  0
   -0.7759   -1.1821    2.6181 H   0  0  0  0  0  0  0  0  0  0  0  0
   -0.3287    1.4622    1.1770 H   0  0  0  0  0  0  0  0  0  0  0  0
   -1.0266   -1.2615   -0.0124 H   0  0  0  0  0  0  0  0  0  0  0  0
   -0.5835   -0.5036   -2.2382 H   0  0  0  0  0  0  0  0  0  0  0  0
   -0.2358    1.1309   -1.7201 H   0  0  0  0  0  0  0  0  0  0  0  0
    1.4294   -1.3682   -1.2165 H   0  0  0  0  0  0  0  0  0  0  0  0
    1.8365    0.0176   -2.2124 H   0  0  0  0  0  0  0  0  0  0  0  0
    1.1206   -1.2012    1.1142 H   0  0  0  0  0  0  0  0  0  0  0  0
    1.8443   -0.4521    3.1997 H   0  0  0  0  0  0  0  0  0  0  0  0
    1.9882    1.2561    2.6962 H   0  0  0  0  0  0  0  0  0  0  0  0
    4.2621   -0.3052    2.3483 H   0  0  0  0  0  0  0  0  0  0  0  0
    3.9952    0.9631   -2.1223 H   0  0  0  0  0  0  0  0  0  0  0  0
    7.4179   -1.1716   -2.8500 H   0  0  0  0  0  0  0  0  0  0  0  0
    7.2713   -2.3445   -0.6492 H   0  0  0  0  0  0  0  0  0  0  0  0
    5.3777   -1.8279    0.8533 H   0  0  0  0  0  0  0  0  0  0  0  0
    2.5245    2.2495   -1.1161 H   0  0  0  0  0  0  0  0  0  0  0  0
    0.9688    2.3617   -0.3188 H   0  0  0  0  0  0  0  0  0  0  0  0
    2.4431    2.4464    0.6307 H   0  0  0  0  0  0  0  0  0  0  0  0
   -7.1395   -0.9725   -0.5837 H   0  0  0  0  0  0  0  0  0  0  0  0
  2  1  1  6
  2  3  1  0
  3  4  1  0
  4  5  1  0
  5  6  1  0
  6  7  1  0
  7  8  2  0
  8  9  1  0
  9 10  1  0
 10 11  1  0
 11 12  1  0
 12 13  1  0
 13 14  1  0
 14 15  1  0
 15 16  1  0
 16 17  1  0
 17 18  2  0
 18 19  1  0
 19 20  2  0
 20 21  1  0
 21 22  2  0
 22 23  1  0
 23 24  2  0
 14 25  1  6
  5 26  1  0
  7  2  1  0
 11  2  1  0
 15 10  1  0
 18 14  1  0
 24 19  1  0
  1 27  1  0
  1 28  1  0
  1 29  1  0
  3 30  1  0
  3 31  1  0
  4 32  1  0
  4 33  1  0
  5 34  1  1
  6 35  1  0
  6 36  1  0
  8 37  1  0
  9 38  1  0
  9 39  1  0
 10 40  1  6
 11 41  1  1
 12 42  1  0
 12 43  1  0
 13 44  1  0
 13 45  1  0
 15 46  1  6
 16 47  1  0
 16 48  1  0
 17 49  1  0
 20 50  1  0
 22 51  1  0
 23 52  1  0
 24 53  1  0
 25 54  1  0
 25 55  1  0
 25 56  1  0
 26 57  1  0
M  END
$$$$
