
     RDKit          3D

 44 45  0  0  0  0  0  0  0  0999 V2000
   -1.7967    2.9023    0.3413 C   0  0  0  0  0  0  0  0  0  0  0  0
   -1.2068    1.7157   -0.4197 C   0  0  0  0  0  0  0  0  0  0  0  0
    0.3292    1.7823   -0.4625 C   0  0  0  0  0  0  0  0  0  0  0  0
    0.9860    2.8056   -0.6995 O   0  0  0  0  0  0  0  0  0  0  0  0
    0.8237    0.5455   -0.1475 N   0  0  0  0  0  0  0  0  0  0  0  0
   -0.1607   -0.2520    0.3885 C   0  0  0  0  0  0  0  0  0  0  0  0
   -0.0249   -1.3834    0.8489 O   0  0  0  0  0  0  0  0  0  0  0  0
   -1.3743    0.4321    0.2543 N   0  0  0  0  0  0  0  0  0  0  0  0
   -2.6330   -0.0807    0.7710 C   0  0  0  0  0  0  0  0  0  0  0  0
   -3.5923   -0.6564   -0.2828 C   0  0  0  0  0  0  0  0  0  0  0  0
   -3.0539   -1.9395   -0.9350 C   0  0  0  0  0  0  0  0  0  0  0  0
   -4.0664   -2.6072   -1.8566 C   0  0  0  0  0  0  0  0  0  0  0  0
   -5.2449   -2.9696   -1.1518 O   0  0  0  0  0  0  0  0  0  0  0  0
    2.1908    0.2468   -0.1582 C   0  0  0  0  0  0  0  0  0  0  0  0
    2.8905    0.0311    1.0343 C   0  0  0  0  0  0  0  0  0  0  0  0
    4.2873   -0.1875    1.0070 C   0  0  0  0  0  0  0  0  0  0  0  0
    4.9435   -0.2856   -0.2399 C   0  0  0  0  0  0  0  0  0  0  0  0
    4.2153   -0.0982   -1.4306 C   0  0  0  0  0  0  0  0  0  0  0  0
    2.8563    0.2019   -1.3912 C   0  0  0  0  0  0  0  0  0  0  0  0
    6.3434   -0.5698   -0.3264 C   0  0  0  0  0  0  0  0  0  0  0  0
    7.4779   -0.8177   -0.3922 N   0  0  0  0  0  0  0  0  0  0  0  0
    5.0688   -0.2749    2.3072 C   0  0  0  0  0  0  0  0  0  0  0  0
    6.0772    0.6372    2.3812 F   0  0  0  0  0  0  0  0  0  0  0  0
    4.3016   -0.0634    3.4112 F   0  0  0  0  0  0  0  0  0  0  0  0
    5.6485   -1.4930    2.4995 F   0  0  0  0  0  0  0  0  0  0  0  0
   -1.6739    1.6740   -1.8747 C   0  0  0  0  0  0  0  0  0  0  0  0
   -2.8978    2.8819    0.2840 H   0  0  0  0  0  0  0  0  0  0  0  0
   -1.5183    2.8816    1.4131 H   0  0  0  0  0  0  0  0  0  0  0  0
   -1.4541    3.8648   -0.0742 H   0  0  0  0  0  0  0  0  0  0  0  0
   -3.1236    0.7309    1.3204 H   0  0  0  0  0  0  0  0  0  0  0  0
   -2.4077   -0.8604    1.5147 H   0  0  0  0  0  0  0  0  0  0  0  0
   -4.5396   -0.8656    0.2148 H   0  0  0  0  0  0  0  0  0  0  0  0
   -3.7996    0.0929   -1.0512 H   0  0  0  0  0  0  0  0  0  0  0  0
   -2.1418   -1.7263   -1.5030 H   0  0  0  0  0  0  0  0  0  0  0  0
   -2.7802   -2.6449   -0.1347 H   0  0  0  0  0  0  0  0  0  0  0  0
   -4.3605   -1.9501   -2.6813 H   0  0  0  0  0  0  0  0  0  0  0  0
   -3.6476   -3.5158   -2.2911 H   0  0  0  0  0  0  0  0  0  0  0  0
   -4.9708   -3.4989   -0.3705 H   0  0  0  0  0  0  0  0  0  0  0  0
    2.3770    0.0991    1.9937 H   0  0  0  0  0  0  0  0  0  0  0  0
    4.7068   -0.1641   -2.3977 H   0  0  0  0  0  0  0  0  0  0  0  0
    2.3115    0.3733   -2.3180 H   0  0  0  0  0  0  0  0  0  0  0  0
   -2.7634    1.7476   -1.9598 H   0  0  0  0  0  0  0  0  0  0  0  0
   -1.2440    2.5124   -2.4487 H   0  0  0  0  0  0  0  0  0  0  0  0
   -1.3588    0.7459   -2.3779 H   0  0  0  0  0  0  0  0  0  0  0  0
  1  2  1  0
  2  3  1  0
  3  4  2  0
  3  5  1  0
  5  6  1  0
  6  7  2  0
  6  8  1  0
  8  9  1  0
  9 10  1  0
 10 11  1  0
 11 12  1  0
 12 13  1  0
  5 14  1  0
 14 15  2  0
 15 16  1  0
 16 17  2  0
 17 18  1  0
 18 19  2  0
 17 20  1  0
 20 21  3  0
 16 22  1  0
 22 23  1  0
 22 24  1  0
 22 25  1  0
  2 26  1  0
  8  2  1  0
 19 14  1  0
  1 27  1  0
  1 28  1  0
  1 29  1  0
  9 30  1  0
  9 31  1  0
 10 32  1  0
 10 33  1  0
 11 34  1  0
 11 35  1  0
 12 36  1  0
 12 37  1  0
 13 38  1  0
 15 39  1  0
 18 40  1  0
 19 41  1  0
 26 42  1  0
 26 43  1  0
 26 44  1  0
M  END
$$$$
