
     RDKit          3D

 31 31  0  0  0  0  0  0  0  0999 V2000
   -3.1214   -1.1996    0.7939 C   0  0  0  0  0  0  0  0  0  0  0  0
   -2.4760    0.0328    0.1413 C   0  0  0  0  0  0  0  0  0  0  0  0
   -2.9484    1.2846    0.8890 C   0  0  0  0  0  0  0  0  0  0  0  0
   -2.8710    0.0642   -1.3392 C   0  0  0  0  0  0  0  0  0  0  0  0
   -1.0494   -0.1727    0.3035 O   0  0  0  0  0  0  0  0  0  0  0  0
   -0.1573    0.7360   -0.1659 C   0  0  0  0  0  0  0  0  0  0  0  0
   -0.4474    1.7753   -0.7412 O   0  0  0  0  0  0  0  0  0  0  0  0
    1.1299    0.3494    0.0924 N   0  0  0  0  0  0  0  0  0  0  0  0
    1.5326   -0.8754    0.7649 C   0  0  0  0  0  0  0  0  0  0  0  0
    3.0415   -0.9608    0.5294 C   0  0  2  0  0  0  0  0  0  0  0  0
    3.4584    0.5152    0.4398 C   0  0  2  0  0  0  0  0  0  0  0  0
    2.2749    1.1563   -0.2878 C   0  0  0  0  0  0  0  0  0  0  0  0
    4.6809    0.6573   -0.2712 O   0  0  0  0  0  0  0  0  0  0  0  0
    3.3447   -1.5944   -0.7255 O   0  0  0  0  0  0  0  0  0  0  0  0
   -4.2144   -1.1653    0.7370 H   0  0  0  0  0  0  0  0  0  0  0  0
   -2.8318   -1.2787    1.8484 H   0  0  0  0  0  0  0  0  0  0  0  0
   -2.7782   -2.1214    0.3097 H   0  0  0  0  0  0  0  0  0  0  0  0
   -2.5802    1.2829    1.9211 H   0  0  0  0  0  0  0  0  0  0  0  0
   -2.5772    2.2033    0.4251 H   0  0  0  0  0  0  0  0  0  0  0  0
   -4.0418    1.3475    0.9091 H   0  0  0  0  0  0  0  0  0  0  0  0
   -2.4982    0.9606   -1.8437 H   0  0  0  0  0  0  0  0  0  0  0  0
   -3.9595    0.0494   -1.4614 H   0  0  0  0  0  0  0  0  0  0  0  0
   -2.4487   -0.7949   -1.8724 H   0  0  0  0  0  0  0  0  0  0  0  0
    0.9824   -1.7287    0.3572 H   0  0  0  0  0  0  0  0  0  0  0  0
    1.2999   -0.7560    1.8283 H   0  0  0  0  0  0  0  0  0  0  0  0
    3.5730   -1.5069    1.3136 H   0  0  0  0  0  0  0  0  0  0  0  0
    3.5648    0.9465    1.4416 H   0  0  0  0  0  0  0  0  0  0  0  0
    2.3864    1.1189   -1.3774 H   0  0  0  0  0  0  0  0  0  0  0  0
    2.1251    2.2011    0.0029 H   0  0  0  0  0  0  0  0  0  0  0  0
    4.6555   -0.0416   -0.9584 H   0  0  0  0  0  0  0  0  0  0  0  0
    2.9512   -2.4849   -0.7060 H   0  0  0  0  0  0  0  0  0  0  0  0
  1  2  1  0
  2  3  1  0
  2  4  1  0
  2  5  1  0
  5  6  1  0
  6  7  2  0
  6  8  1  0
  8  9  1  0
  9 10  1  0
 10 11  1  0
 11 12  1  0
 11 13  1  0
 10 14  1  0
 12  8  1  0
  1 15  1  0
  1 16  1  0
  1 17  1  0
  3 18  1  0
  3 19  1  0
  3 20  1  0
  4 21  1  0
  4 22  1  0
  4 23  1  0
  9 24  1  0
  9 25  1  0
 10 26  1  1
 11 27  1  1
 12 28  1  0
 12 29  1  0
 13 30  1  0
 14 31  1  0
M  END
$$$$
