
     RDKit          3D

101108  0  0  0  0  0  0  0  0999 V2000
    9.1029    0.9227    0.2336 C   0  0  0  0  0  0  0  0  0  0  0  0
    9.7210    0.0631   -0.8753 C   0  0  0  0  0  0  0  0  0  0  0  0
   10.3397   -1.2279   -0.3296 C   0  0  0  0  0  0  0  0  0  0  0  0
    9.2975   -2.0101    0.4903 C   0  0  0  0  0  0  0  0  0  0  0  0
    8.6618   -1.1551    1.5950 C   0  0  0  0  0  0  0  0  0  0  0  0
    8.0455    0.1480    1.0430 C   0  0  0  0  0  0  0  0  0  0  0  0
    6.8206   -0.1650    0.3053 N   0  0  0  0  0  0  0  0  0  0  0  0
    6.0121    0.7770   -0.3027 C   0  0  0  0  0  0  0  0  0  0  0  0
    6.3323    1.9346   -0.5434 O   0  0  0  0  0  0  0  0  0  0  0  0
    4.6432    0.2903   -0.6356 C   0  0  0  0  0  0  0  0  0  0  0  0
    4.2603   -0.8705   -0.0696 N   0  0  0  0  0  0  0  0  0  0  0  0
    2.9680   -1.3142   -0.2726 N   0  0  0  0  0  0  0  0  0  0  0  0
    2.0626   -0.6354   -1.0272 C   0  0  0  0  0  0  0  0  0  0  0  0
    2.4927    0.5369   -1.6447 C   0  0  0  0  0  0  0  0  0  0  0  0
    3.7869    1.0169   -1.4432 C   0  0  0  0  0  0  0  0  0  0  0  0
    0.7814   -1.1546   -1.1522 N   0  0  0  0  0  0  0  0  0  0  0  0
   -0.2932   -0.5162   -1.9215 C   0  0  0  0  0  0  0  0  0  0  0  0
   -1.5364   -0.2531   -1.0507 C   0  0  0  0  0  0  0  0  0  0  0  0
   -1.1373    0.1448    0.3810 C   0  0  0  0  0  0  0  0  0  0  0  0
   -0.3561   -1.0446    1.0149 C   0  0  0  0  0  0  0  0  0  0  0  0
    0.3112   -1.9634   -0.0223 C   0  0  0  0  0  0  0  0  0  0  0  0
   -2.2983    0.5606    1.3133 C   0  0  0  0  0  0  0  0  0  0  0  0
   -2.7456    1.9651    1.1998 N   0  0  0  0  0  0  0  0  0  0  0  0
   -3.5330    2.3512    2.4087 C   0  0  0  0  0  0  0  0  0  0  0  0
   -5.0866    2.3810    2.2640 C   0  0  0  0  0  0  0  0  0  0  0  0
   -5.5569    1.3583    1.2986 N   0  0  0  0  0  0  0  0  0  0  0  0
   -4.9263    1.5043   -0.0365 C   0  0  0  0  0  0  0  0  0  0  0  0
   -3.5751    2.2591    0.0179 C   0  0  0  0  0  0  0  0  0  0  0  0
   -6.8576    0.8522    1.4148 C   0  0  0  0  0  0  0  0  0  0  0  0
   -7.4785    0.6097    2.6832 C   0  0  0  0  0  0  0  0  0  0  0  0
   -8.7929    0.1563    2.8209 C   0  0  0  0  0  0  0  0  0  0  0  0
   -9.4885   -0.0898    1.6635 C   0  0  0  0  0  0  0  0  0  0  0  0
   -8.9111    0.0852    0.4258 C   0  0  0  0  0  0  0  0  0  0  0  0
   -7.6162    0.5359    0.2671 C   0  0  0  0  0  0  0  0  0  0  0  0
   -9.9180   -0.2259   -0.5813 C   0  0  0  0  0  0  0  0  0  0  0  0
   -9.7455   -0.1177   -1.7781 O   0  0  0  0  0  0  0  0  0  0  0  0
  -11.0480   -0.5935    0.0952 N   0  0  0  0  0  0  0  0  0  0  0  0
  -10.8777   -0.4999    1.4482 C   0  0  0  0  0  0  0  0  0  0  0  0
  -11.7027   -0.6471    2.3259 O   0  0  0  0  0  0  0  0  0  0  0  0
  -12.3209   -0.8812   -0.5559 C   0  0  0  0  0  0  0  0  0  0  0  0
  -12.8669    0.3290   -1.3113 C   0  0  0  0  0  0  0  0  0  0  0  0
  -14.1222   -0.0566   -2.0746 C   0  0  0  0  0  0  0  0  0  0  0  0
  -13.8200   -1.1865   -3.0359 C   0  0  0  0  0  0  0  0  0  0  0  0
  -14.3016   -1.2528   -4.1624 O   0  0  0  0  0  0  0  0  0  0  0  0
  -12.9906   -2.1719   -2.5630 N   0  0  0  0  0  0  0  0  0  0  0  0
  -12.1735   -2.1135   -1.4570 C   0  0  0  0  0  0  0  0  0  0  0  0
  -11.4056   -3.0443   -1.2005 O   0  0  0  0  0  0  0  0  0  0  0  0
   -6.7976    0.7793    3.8293 F   0  0  0  0  0  0  0  0  0  0  0  0
   11.4233   -0.9269    0.5640 O   0  0  0  0  0  0  0  0  0  0  0  0
   12.6643   -0.6363    0.0764 C   0  0  0  0  0  0  0  0  0  0  0  0
   13.5898   -0.2573    1.0582 C   0  0  0  0  0  0  0  0  0  0  0  0
   14.9087    0.0734    0.7161 C   0  0  0  0  0  0  0  0  0  0  0  0
   15.3179    0.0192   -0.6213 C   0  0  0  0  0  0  0  0  0  0  0  0
   14.3909   -0.3711   -1.6037 C   0  0  0  0  0  0  0  0  0  0  0  0
   13.0710   -0.6910   -1.2553 C   0  0  0  0  0  0  0  0  0  0  0  0
   16.6612    0.3439   -1.0148 C   0  0  0  0  0  0  0  0  0  0  0  0
   17.7463    0.5877   -1.3462 N   0  0  0  0  0  0  0  0  0  0  0  0
   15.9827    0.5437    1.9939 Cl  0  0  0  0  0  0  0  0  0  0  0  0
    8.6956    1.8337   -0.2127 H   0  0  0  0  0  0  0  0  0  0  0  0
    9.8980    1.2641    0.9122 H   0  0  0  0  0  0  0  0  0  0  0  0
   10.4852    0.6636   -1.3857 H   0  0  0  0  0  0  0  0  0  0  0  0
    8.9579   -0.1817   -1.6248 H   0  0  0  0  0  0  0  0  0  0  0  0
   10.6760   -1.8836   -1.1418 H   0  0  0  0  0  0  0  0  0  0  0  0
    9.7805   -2.8782    0.9619 H   0  0  0  0  0  0  0  0  0  0  0  0
    8.5107   -2.3926   -0.1771 H   0  0  0  0  0  0  0  0  0  0  0  0
    9.4268   -0.9037    2.3423 H   0  0  0  0  0  0  0  0  0  0  0  0
    7.8975   -1.7522    2.1113 H   0  0  0  0  0  0  0  0  0  0  0  0
    7.7330    0.7688    1.8921 H   0  0  0  0  0  0  0  0  0  0  0  0
    6.3186   -1.0061    0.5897 H   0  0  0  0  0  0  0  0  0  0  0  0
    1.8372    1.1327   -2.2674 H   0  0  0  0  0  0  0  0  0  0  0  0
    4.1076    1.9507   -1.8956 H   0  0  0  0  0  0  0  0  0  0  0  0
    0.0035    0.4283   -2.3859 H   0  0  0  0  0  0  0  0  0  0  0  0
   -0.5660   -1.1858   -2.7458 H   0  0  0  0  0  0  0  0  0  0  0  0
   -2.1368    0.5034   -1.5538 H   0  0  0  0  0  0  0  0  0  0  0  0
   -2.1625   -1.1575   -1.0215 H   0  0  0  0  0  0  0  0  0  0  0  0
   -0.4471    0.9970    0.3164 H   0  0  0  0  0  0  0  0  0  0  0  0
    0.4066   -0.6341    1.6902 H   0  0  0  0  0  0  0  0  0  0  0  0
   -1.0140   -1.6622    1.6377 H   0  0  0  0  0  0  0  0  0  0  0  0
    1.0917   -2.5770    0.4495 H   0  0  0  0  0  0  0  0  0  0  0  0
   -0.4284   -2.6885   -0.3948 H   0  0  0  0  0  0  0  0  0  0  0  0
   -1.9065    0.4354    2.3350 H   0  0  0  0  0  0  0  0  0  0  0  0
   -3.1336   -0.1423    1.2207 H   0  0  0  0  0  0  0  0  0  0  0  0
   -3.2720    1.7209    3.2743 H   0  0  0  0  0  0  0  0  0  0  0  0
   -3.2143    3.3693    2.6994 H   0  0  0  0  0  0  0  0  0  0  0  0
   -5.5081    2.3034    3.2672 H   0  0  0  0  0  0  0  0  0  0  0  0
   -5.3893    3.3697    1.8881 H   0  0  0  0  0  0  0  0  0  0  0  0
   -5.5811    2.0667   -0.7077 H   0  0  0  0  0  0  0  0  0  0  0  0
   -4.7649    0.5076   -0.4636 H   0  0  0  0  0  0  0  0  0  0  0  0
   -3.7904    3.3391    0.0213 H   0  0  0  0  0  0  0  0  0  0  0  0
   -3.0215    2.1286   -0.9116 H   0  0  0  0  0  0  0  0  0  0  0  0
   -9.2291    0.0034    3.7993 H   0  0  0  0  0  0  0  0  0  0  0  0
   -7.2388    0.6437   -0.7449 H   0  0  0  0  0  0  0  0  0  0  0  0
  -13.0452   -1.1696    0.2175 H   0  0  0  0  0  0  0  0  0  0  0  0
  -13.0886    1.1389   -0.6091 H   0  0  0  0  0  0  0  0  0  0  0  0
  -12.1318    0.7179   -2.0305 H   0  0  0  0  0  0  0  0  0  0  0  0
  -14.9237   -0.3786   -1.4023 H   0  0  0  0  0  0  0  0  0  0  0  0
  -14.4870    0.8022   -2.6505 H   0  0  0  0  0  0  0  0  0  0  0  0
  -12.8142   -2.9468   -3.1862 H   0  0  0  0  0  0  0  0  0  0  0  0
   13.2676   -0.2118    2.0984 H   0  0  0  0  0  0  0  0  0  0  0  0
   14.6921   -0.4226   -2.6485 H   0  0  0  0  0  0  0  0  0  0  0  0
   12.3937   -0.9700   -2.0509 H   0  0  0  0  0  0  0  0  0  0  0  0
  1  2  1  0
  2  3  1  0
  3  4  1  0
  4  5  1  0
  5  6  1  0
  6  7  1  0
  7  8  1  0
  8  9  2  0
  8 10  1  0
 10 11  2  0
 11 12  1  0
 12 13  2  0
 13 14  1  0
 14 15  2  0
 13 16  1  0
 16 17  1  0
 17 18  1  0
 18 19  1  0
 19 20  1  0
 20 21  1  0
 19 22  1  0
 22 23  1  0
 23 24  1  0
 24 25  1  0
 25 26  1  0
 26 27  1  0
 27 28  1  0
 26 29  1  0
 29 30  2  0
 30 31  1  0
 31 32  2  0
 32 33  1  0
 33 34  2  0
 33 35  1  0
 35 36  2  0
 35 37  1  0
 37 38  1  0
 38 39  2  0
 37 40  1  0
 40 41  1  0
 41 42  1  0
 42 43  1  0
 43 44  2  0
 43 45  1  0
 45 46  1  0
 46 47  2  0
 30 48  1  0
  3 49  1  0
 49 50  1  0
 50 51  2  0
 51 52  1  0
 52 53  2  0
 53 54  1  0
 54 55  2  0
 53 56  1  0
 56 57  3  0
 52 58  1  0
  6  1  1  0
 15 10  1  0
 21 16  1  0
 28 23  1  0
 34 29  1  0
 38 32  1  0
 46 40  1  0
 55 50  1  0
  1 59  1  0
  1 60  1  0
  2 61  1  0
  2 62  1  0
  3 63  1  0
  4 64  1  0
  4 65  1  0
  5 66  1  0
  5 67  1  0
  6 68  1  0
  7 69  1  0
 14 70  1  0
 15 71  1  0
 17 72  1  0
 17 73  1  0
 18 74  1  0
 18 75  1  0
 19 76  1  0
 20 77  1  0
 20 78  1  0
 21 79  1  0
 21 80  1  0
 22 81  1  0
 22 82  1  0
 24 83  1  0
 24 84  1  0
 25 85  1  0
 25 86  1  0
 27 87  1  0
 27 88  1  0
 28 89  1  0
 28 90  1  0
 31 91  1  0
 34 92  1  0
 40 93  1  0
 41 94  1  0
 41 95  1  0
 42 96  1  0
 42 97  1  0
 45 98  1  0
 51 99  1  0
 54100  1  0
 55101  1  0
M  END
$$$$
