
     RDKit          3D

 31 33  0  0  0  0  0  0  0  0999 V2000
   -2.2273    0.0528   -1.3514 C   0  0  0  0  0  0  0  0  0  0  0  0
   -3.7432    0.1769   -1.3311 C   0  0  0  0  0  0  0  0  0  0  0  0
   -4.1966    1.1296   -0.2516 C   0  0  0  0  0  0  0  0  0  0  0  0
   -5.2567    1.7420   -0.3260 O   0  0  0  0  0  0  0  0  0  0  0  0
   -3.3933    1.2376    0.8593 N   0  0  0  0  0  0  0  0  0  0  0  0
   -2.1954    0.5962    1.1036 C   0  0  0  0  0  0  0  0  0  0  0  0
   -1.6001    0.7790    2.1625 O   0  0  0  0  0  0  0  0  0  0  0  0
   -1.7252   -0.3767    0.0238 C   0  0  0  0  0  0  0  0  0  0  0  0
   -0.2808   -0.5125    0.0820 N   0  0  0  0  0  0  0  0  0  0  0  0
    0.3673   -1.6460    0.4953 C   0  0  0  0  0  0  0  0  0  0  0  0
   -0.1129   -2.7251    0.7906 O   0  0  0  0  0  0  0  0  0  0  0  0
    1.7934   -1.3463    0.4939 C   0  0  0  0  0  0  0  0  0  0  0  0
    1.9453   -0.0252    0.1029 C   0  0  0  0  0  0  0  0  0  0  0  0
    0.6096    0.5048   -0.1615 C   0  0  0  0  0  0  0  0  0  0  0  0
    0.3781    1.6502   -0.5032 O   0  0  0  0  0  0  0  0  0  0  0  0
    3.1863    0.5853    0.0390 C   0  0  0  0  0  0  0  0  0  0  0  0
    4.2911   -0.2360    0.3094 C   0  0  0  0  0  0  0  0  0  0  0  0
    4.1386   -1.5833    0.6985 C   0  0  0  0  0  0  0  0  0  0  0  0
    2.8673   -2.1507    0.8046 C   0  0  0  0  0  0  0  0  0  0  0  0
    3.3666    1.8845   -0.4530 N   0  0  0  0  0  0  0  0  0  0  0  0
   -1.9194   -0.6701   -2.1097 H   0  0  0  0  0  0  0  0  0  0  0  0
   -1.7991    1.0244   -1.6271 H   0  0  0  0  0  0  0  0  0  0  0  0
   -4.0884    0.5587   -2.2986 H   0  0  0  0  0  0  0  0  0  0  0  0
   -4.2151   -0.7970   -1.1579 H   0  0  0  0  0  0  0  0  0  0  0  0
   -3.7101    1.8878    1.5706 H   0  0  0  0  0  0  0  0  0  0  0  0
   -2.1710   -1.3481    0.2750 H   0  0  0  0  0  0  0  0  0  0  0  0
    5.3038    0.1557    0.2058 H   0  0  0  0  0  0  0  0  0  0  0  0
    5.0177   -2.1943    0.9129 H   0  0  0  0  0  0  0  0  0  0  0  0
    2.7247   -3.1804    1.1100 H   0  0  0  0  0  0  0  0  0  0  0  0
    4.1452    2.3917   -0.0224 H   0  0  0  0  0  0  0  0  0  0  0  0
    2.4995    2.4343   -0.4460 H   0  0  0  0  0  0  0  0  0  0  0  0
  1  2  1  0
  2  3  1  0
  3  4  2  0
  3  5  1  0
  5  6  1  0
  6  7  2  0
  6  8  1  0
  8  9  1  0
  9 10  1  0
 10 11  2  0
 10 12  1  0
 12 13  2  0
 13 14  1  0
 14 15  2  0
 13 16  1  0
 16 17  2  0
 17 18  1  0
 18 19  2  0
 16 20  1  0
  8  1  1  0
 14  9  1  0
 19 12  1  0
  1 21  1  0
  1 22  1  0
  2 23  1  0
  2 24  1  0
  5 25  1  0
  8 26  1  0
 17 27  1  0
 18 28  1  0
 19 29  1  0
 20 30  1  0
 20 31  1  0
M  END
$$$$
