
     RDKit          3D

 51 53  0  0  0  0  0  0  0  0999 V2000
   -1.3924    0.0081    0.7653 C   0  0  0  0  0  0  0  0  0  0  0  0
    0.0067    0.0717    0.8342 C   0  0  0  0  0  0  0  0  0  0  0  0
    0.8114   -0.6209   -0.0783 C   0  0  0  0  0  0  0  0  0  0  0  0
    0.1701   -1.4435   -1.0167 C   0  0  0  0  0  0  0  0  0  0  0  0
   -1.2249   -1.5163   -1.0926 C   0  0  0  0  0  0  0  0  0  0  0  0
   -2.0135   -0.7749   -0.2117 C   0  0  0  0  0  0  0  0  0  0  0  0
   -3.4955   -0.8758   -0.3204 C   0  0  0  0  0  0  0  0  0  0  0  0
   -4.0144   -1.8534   -0.8459 O   0  0  0  0  0  0  0  0  0  0  0  0
   -4.2160    0.2061    0.1497 N   0  0  0  0  0  0  0  0  0  0  0  0
   -5.6592    0.2838   -0.1109 C   0  0  1  0  0  0  0  0  0  0  0  0
   -6.3225    1.1355    0.9828 C   0  0  0  0  0  0  0  0  0  0  0  0
   -7.8455    0.9907    1.0517 C   0  0  0  0  0  0  0  0  0  0  0  0
   -8.2736   -0.3630    1.5502 C   0  0  0  0  0  0  0  0  0  0  0  0
   -7.5817   -1.1877    2.1200 O   0  0  0  0  0  0  0  0  0  0  0  0
   -9.5815   -0.5934    1.3314 O   0  0  0  0  0  0  0  0  0  0  0  0
   -5.9069    0.9148   -1.4905 C   0  0  0  0  0  0  0  0  0  0  0  0
   -6.9779    0.9693   -2.0754 O   0  0  0  0  0  0  0  0  0  0  0  0
   -4.8267    1.5362   -2.0178 O   0  0  0  0  0  0  0  0  0  0  0  0
    2.2085   -0.6569   -0.0155 N   0  0  0  0  0  0  0  0  0  0  0  0
    2.9305    0.4147    0.6660 C   0  0  0  0  0  0  0  0  0  0  0  0
    4.4201    0.1781    0.5547 C   0  0  0  0  0  0  0  0  0  0  0  0
    5.0513   -0.7387    1.3961 C   0  0  0  0  0  0  0  0  0  0  0  0
    6.3794   -1.0147    1.3358 N   0  0  0  0  0  0  0  0  0  0  0  0
    7.0722   -0.3573    0.3789 C   0  0  0  0  0  0  0  0  0  0  0  0
    6.4374    0.5440   -0.4677 C   0  0  0  0  0  0  0  0  0  0  0  0
    5.1090    0.8383   -0.4118 N   0  0  0  0  0  0  0  0  0  0  0  0
    7.2866    1.2058   -1.4767 C   0  0  0  0  0  0  0  0  0  0  0  0
    6.8577    2.0044   -2.3021 O   0  0  0  0  0  0  0  0  0  0  0  0
    8.6204    0.8651   -1.4396 N   0  0  0  0  0  0  0  0  0  0  0  0
    9.1480   -0.0465   -0.5738 C   0  0  0  0  0  0  0  0  0  0  0  0
    8.4403   -0.6549    0.3190 N   0  0  0  0  0  0  0  0  0  0  0  0
   10.4752   -0.2908   -0.6852 N   0  0  0  0  0  0  0  0  0  0  0  0
   -1.9777    0.5469    1.5053 H   0  0  0  0  0  0  0  0  0  0  0  0
    0.4439    0.6695    1.6278 H   0  0  0  0  0  0  0  0  0  0  0  0
    0.7581   -2.0477   -1.7043 H   0  0  0  0  0  0  0  0  0  0  0  0
   -1.6900   -2.1593   -1.8371 H   0  0  0  0  0  0  0  0  0  0  0  0
   -3.7251    1.0916    0.1459 H   0  0  0  0  0  0  0  0  0  0  0  0
   -6.0611   -0.7343   -0.1329 H   0  0  0  0  0  0  0  0  0  0  0  0
   -5.8964    0.8714    1.9599 H   0  0  0  0  0  0  0  0  0  0  0  0
   -6.0809    2.1941    0.8188 H   0  0  0  0  0  0  0  0  0  0  0  0
   -8.2985    1.1721    0.0732 H   0  0  0  0  0  0  0  0  0  0  0  0
   -8.2425    1.7333    1.7531 H   0  0  0  0  0  0  0  0  0  0  0  0
   -9.7313   -1.4937    1.6898 H   0  0  0  0  0  0  0  0  0  0  0  0
   -5.1461    1.8559   -2.8882 H   0  0  0  0  0  0  0  0  0  0  0  0
    2.6073   -0.8399   -0.9373 H   0  0  0  0  0  0  0  0  0  0  0  0
    2.6885    1.3840    0.2133 H   0  0  0  0  0  0  0  0  0  0  0  0
    2.6671    0.4608    1.7292 H   0  0  0  0  0  0  0  0  0  0  0  0
    4.4964   -1.2916    2.1486 H   0  0  0  0  0  0  0  0  0  0  0  0
    9.1982    1.2757   -2.1564 H   0  0  0  0  0  0  0  0  0  0  0  0
   11.0679    0.4957   -0.9172 H   0  0  0  0  0  0  0  0  0  0  0  0
   10.8296   -0.8237    0.1053 H   0  0  0  0  0  0  0  0  0  0  0  0
  1  2  2  0
  2  3  1  0
  3  4  2  0
  4  5  1  0
  5  6  2  0
  6  7  1  0
  7  8  2  0
  7  9  1  0
  9 10  1  0
 10 11  1  0
 11 12  1  0
 12 13  1  0
 13 14  2  0
 13 15  1  0
 10 16  1  0
 16 17  2  0
 16 18  1  0
  3 19  1  0
 19 20  1  0
 20 21  1  0
 21 22  2  0
 22 23  1  0
 23 24  2  0
 24 25  1  0
 25 26  2  0
 25 27  1  0
 27 28  2  0
 27 29  1  0
 29 30  1  0
 30 31  2  0
 30 32  1  0
  6  1  1  0
 26 21  1  0
 31 24  1  0
  1 33  1  0
  2 34  1  0
  4 35  1  0
  5 36  1  0
  9 37  1  0
 10 38  1  6
 11 39  1  0
 11 40  1  0
 12 41  1  0
 12 42  1  0
 15 43  1  0
 18 44  1  0
 19 45  1  0
 20 46  1  0
 20 47  1  0
 22 48  1  0
 29 49  1  0
 32 50  1  0
 32 51  1  0
M  END
$$$$
