
     RDKit          3D

 43 45  0  0  0  0  0  0  0  0999 V2000
    5.5275    1.7955    0.0602 C   0  0  0  0  0  0  0  0  0  0  0  0
    4.0234    1.9181   -0.1433 C   0  0  0  0  0  0  0  0  0  0  0  0
    3.3863    0.5390   -0.4156 C   0  0  0  0  0  0  0  0  0  0  0  0
    1.9350    0.6441   -0.4461 N   0  0  0  0  0  0  0  0  0  0  0  0
    1.2275   -0.5370   -0.4840 C   0  0  0  0  0  0  0  0  0  0  0  0
    1.7618   -1.6424   -1.0102 N   0  0  0  0  0  0  0  0  0  0  0  0
    0.9784   -2.7310   -1.0681 C   0  0  0  0  0  0  0  0  0  0  0  0
   -0.3110   -2.7675   -0.5938 C   0  0  0  0  0  0  0  0  0  0  0  0
   -0.7721   -1.5986   -0.0309 C   0  0  0  0  0  0  0  0  0  0  0  0
   -0.0076   -0.4870    0.0239 N   0  0  0  0  0  0  0  0  0  0  0  0
   -2.1022   -1.5015    0.4921 N   0  0  0  0  0  0  0  0  0  0  0  0
   -2.8779   -2.4889    1.1082 C   0  0  0  0  0  0  0  0  0  0  0  0
   -4.0685   -1.8693    1.4274 C   0  0  0  0  0  0  0  0  0  0  0  0
   -4.0438   -0.5528    1.1018 N   0  0  0  0  0  0  0  0  0  0  0  0
   -2.8688   -0.3280    0.5429 C   0  0  0  0  0  0  0  0  0  0  0  0
   -2.4865    0.9881    0.0218 C   0  0  0  0  0  0  0  0  0  0  0  0
   -2.4086    2.0770    0.8999 C   0  0  0  0  0  0  0  0  0  0  0  0
   -2.0398    3.3417    0.4314 C   0  0  0  0  0  0  0  0  0  0  0  0
   -1.7616    3.5298   -0.9268 C   0  0  0  0  0  0  0  0  0  0  0  0
   -1.8629    2.4531   -1.8114 C   0  0  0  0  0  0  0  0  0  0  0  0
   -2.2316    1.1896   -1.3410 C   0  0  0  0  0  0  0  0  0  0  0  0
   -1.2943    5.0623   -1.5735 Cl  0  0  0  0  0  0  0  0  0  0  0  0
   -1.9393    4.6265    1.5836 Cl  0  0  0  0  0  0  0  0  0  0  0  0
   -2.4628   -3.8739    1.4807 C   0  0  0  0  0  0  0  0  0  0  0  0
   -2.9196   -4.8573    0.4878 C   0  0  0  0  0  0  0  0  0  0  0  0
   -3.2393   -5.6326   -0.3144 N   0  0  0  0  0  0  0  0  0  0  0  0
    3.7878    2.7981   -1.2443 O   0  0  0  0  0  0  0  0  0  0  0  0
    5.9711    2.7802    0.2433 H   0  0  0  0  0  0  0  0  0  0  0  0
    6.0121    1.3941   -0.8366 H   0  0  0  0  0  0  0  0  0  0  0  0
    5.7632    1.1454    0.9082 H   0  0  0  0  0  0  0  0  0  0  0  0
    3.5664    2.3682    0.7459 H   0  0  0  0  0  0  0  0  0  0  0  0
    3.7436    0.1586   -1.3806 H   0  0  0  0  0  0  0  0  0  0  0  0
    3.6942   -0.1573    0.3746 H   0  0  0  0  0  0  0  0  0  0  0  0
    1.4978    1.2745    0.2123 H   0  0  0  0  0  0  0  0  0  0  0  0
    1.4291   -3.5990   -1.5419 H   0  0  0  0  0  0  0  0  0  0  0  0
   -0.9017   -3.6568   -0.7407 H   0  0  0  0  0  0  0  0  0  0  0  0
   -4.9303   -2.3025    1.9222 H   0  0  0  0  0  0  0  0  0  0  0  0
   -2.6336    1.9314    1.9546 H   0  0  0  0  0  0  0  0  0  0  0  0
   -1.6506    2.5881   -2.8694 H   0  0  0  0  0  0  0  0  0  0  0  0
   -2.3068    0.3647   -2.0458 H   0  0  0  0  0  0  0  0  0  0  0  0
   -1.3805   -3.9422    1.6277 H   0  0  0  0  0  0  0  0  0  0  0  0
   -2.9040   -4.1253    2.4538 H   0  0  0  0  0  0  0  0  0  0  0  0
    4.1004    3.6825   -0.9899 H   0  0  0  0  0  0  0  0  0  0  0  0
  1  2  1  0
  2  3  1  0
  3  4  1  0
  4  5  1  0
  5  6  2  0
  6  7  1  0
  7  8  2  0
  8  9  1  0
  9 10  2  0
  9 11  1  0
 11 12  1  0
 12 13  2  0
 13 14  1  0
 14 15  2  0
 15 16  1  0
 16 17  2  0
 17 18  1  0
 18 19  2  0
 19 20  1  0
 20 21  2  0
 19 22  1  0
 18 23  1  0
 12 24  1  0
 24 25  1  0
 25 26  3  0
  2 27  1  0
 10  5  1  0
 15 11  1  0
 21 16  1  0
  1 28  1  0
  1 29  1  0
  1 30  1  0
  2 31  1  0
  3 32  1  0
  3 33  1  0
  4 34  1  0
  7 35  1  0
  8 36  1  0
 13 37  1  0
 17 38  1  0
 20 39  1  0
 21 40  1  0
 24 41  1  0
 24 42  1  0
 27 43  1  0
M  END
$$$$
