
     RDKit          3D

117121  0  0  0  0  0  0  0  0999 V2000
   -2.8260    5.6688   -0.5786 C   0  0  0  0  0  0  0  0  0  0  0  0
   -1.9995    4.3057   -0.5289 C   0  0  1  0  0  0  0  0  0  0  0  0
   -0.6789    4.2773   -1.2590 C   0  0  0  0  0  0  0  0  0  0  0  0
    0.3652    5.1867   -1.3092 C   0  0  0  0  0  0  0  0  0  0  0  0
    1.6623    5.1291   -1.9872 C   0  0  0  0  0  0  0  0  0  0  0  0
    2.4548    4.1126   -2.3069 C   0  0  0  0  0  0  0  0  0  0  0  0
    2.1558    2.5761   -2.2725 C   0  0  0  0  0  0  0  0  0  0  0  0
    2.8976    2.0318   -3.1352 O   0  0  0  0  0  0  0  0  0  0  0  0
    1.4527    1.9081   -1.3059 N   0  0  0  0  0  0  0  0  0  0  0  0
    1.7098    0.4213   -1.2835 C   0  0  0  0  0  0  0  0  0  0  0  0
    2.2018   -0.3250   -0.0782 C   0  0  0  0  0  0  0  0  0  0  0  0
    2.2134   -1.7155   -0.0277 C   0  0  0  0  0  0  0  0  0  0  0  0
    1.7951   -2.5532   -1.0523 C   0  0  0  0  0  0  0  0  0  0  0  0
    1.3642   -1.9022   -2.3093 C   0  0  0  0  0  0  0  0  0  0  0  0
    1.3619   -0.5044   -2.3453 C   0  0  0  0  0  0  0  0  0  0  0  0
    0.7950   -0.0021   -3.5417 O   0  0  0  0  0  0  0  0  0  0  0  0
    0.8939   -2.6631   -3.3553 C   0  0  0  0  0  0  0  0  0  0  0  0
    0.5056   -3.9996   -3.2515 C   0  0  0  0  0  0  0  0  0  0  0  0
    0.8483   -4.6404   -2.0508 C   0  0  0  0  0  0  0  0  0  0  0  0
    1.5810   -3.9657   -1.0708 C   0  0  0  0  0  0  0  0  0  0  0  0
    1.7767   -4.9901   -0.1226 C   0  0  0  0  0  0  0  0  0  0  0  0
    2.7288   -5.2511    0.7469 O   0  0  0  0  0  0  0  0  0  0  0  0
    0.6670   -5.9056   -0.3060 C   0  0  2  0  0  0  0  0  0  0  0  0
    0.3647   -5.8632   -1.6613 O   0  0  0  0  0  0  0  0  0  0  0  0
   -0.3583   -5.2958    0.5517 O   0  0  0  0  0  0  0  0  0  0  0  0
   -1.4113   -4.3466    0.1599 C   0  0  0  0  0  0  0  0  0  0  0  0
   -1.7049   -3.3434    0.9770 C   0  0  0  0  0  0  0  0  0  0  0  0
   -2.7816   -2.2822    0.9869 C   0  0  1  0  0  0  0  0  0  0  0  0
   -3.0648   -1.5356   -0.3012 C   0  0  2  0  0  0  0  0  0  0  0  0
   -4.2403   -0.5483   -0.0870 C   0  0  2  0  0  0  0  0  0  0  0  0
   -3.9798    0.5201    0.9994 C   0  0  1  0  0  0  0  0  0  0  0  0
   -3.1367    1.6440    0.3727 C   0  0  1  0  0  0  0  0  0  0  0  0
   -3.0111    2.8866    1.2980 C   0  0  1  0  0  0  0  0  0  0  0  0
   -1.8518    3.7973    0.9166 C   0  0  1  0  0  0  0  0  0  0  0  0
   -0.6189    3.0939    1.0209 O   0  0  0  0  0  0  0  0  0  0  0  0
   -4.3198    3.6895    1.3246 C   0  0  0  0  0  0  0  0  0  0  0  0
   -1.8782    1.0998    0.1382 O   0  0  0  0  0  0  0  0  0  0  0  0
   -5.3362    0.8808    1.6135 C   0  0  0  0  0  0  0  0  0  0  0  0
   -5.4988   -1.3363    0.2292 O   0  0  0  0  0  0  0  0  0  0  0  0
   -6.4977   -1.2277   -0.6252 C   0  0  0  0  0  0  0  0  0  0  0  0
   -6.4914   -0.5839   -1.6794 O   0  0  0  0  0  0  0  0  0  0  0  0
   -7.6621   -1.9623   -0.2136 C   0  0  0  0  0  0  0  0  0  0  0  0
   -3.3853   -2.4093   -1.4603 C   0  0  0  0  0  0  0  0  0  0  0  0
   -3.9581   -2.9532    1.4578 O   0  0  0  0  0  0  0  0  0  0  0  0
   -4.2164   -2.6460    2.8416 C   0  0  0  0  0  0  0  0  0  0  0  0
    0.8920   -7.3435    0.2424 C   0  0  0  0  0  0  0  0  0  0  0  0
   -0.1673   -4.7062   -4.4008 C   0  0  0  0  0  0  0  0  0  0  0  0
    0.9342   -2.1583   -4.6316 O   0  0  0  0  0  0  0  0  0  0  0  0
    2.7224   -2.2160    1.1399 O   0  0  0  0  0  0  0  0  0  0  0  0
    2.9310    0.3172    1.0304 C   0  0  0  0  0  0  0  0  0  0  0  0
    4.2320    0.2860    0.9780 N   0  0  0  0  0  0  0  0  0  0  0  0
    4.9367    0.7449    2.0168 N   0  0  0  0  0  0  0  0  0  0  0  0
    5.0995    2.1649    2.3171 C   0  0  0  0  0  0  0  0  0  0  0  0
    6.5429    2.6477    2.2128 C   0  0  0  0  0  0  0  0  0  0  0  0
    7.5169    1.7239    2.8972 N   0  0  0  0  0  0  0  0  0  0  0  0
    7.3449    0.3024    2.4409 C   0  0  0  0  0  0  0  0  0  0  0  0
    5.9256   -0.1622    2.6603 C   0  0  0  0  0  0  0  0  0  0  0  0
    8.9085    2.1623    2.6797 C   0  0  0  0  0  0  0  0  0  0  0  0
    3.8269    4.4651   -2.7793 C   0  0  0  0  0  0  0  0  0  0  0  0
   -3.8951    5.3968   -0.7051 H   0  0  0  0  0  0  0  0  0  0  0  0
   -2.5399    6.1907   -1.4387 H   0  0  0  0  0  0  0  0  0  0  0  0
   -2.6855    6.2920    0.2962 H   0  0  0  0  0  0  0  0  0  0  0  0
   -2.6327    3.6399   -1.0510 H   0  0  0  0  0  0  0  0  0  0  0  0
   -0.7195    3.3409   -1.8529 H   0  0  0  0  0  0  0  0  0  0  0  0
    0.4058    5.9462   -0.5535 H   0  0  0  0  0  0  0  0  0  0  0  0
    2.1115    6.1463   -2.1323 H   0  0  0  0  0  0  0  0  0  0  0  0
    1.1351    2.3500   -0.3004 H   0  0  0  0  0  0  0  0  0  0  0  0
    1.2354   -0.4288   -4.3924 H   0  0  0  0  0  0  0  0  0  0  0  0
   -1.8214   -4.7239   -0.7732 H   0  0  0  0  0  0  0  0  0  0  0  0
   -1.1505   -3.2240    1.8843 H   0  0  0  0  0  0  0  0  0  0  0  0
   -2.4462   -1.5806    1.7063 H   0  0  0  0  0  0  0  0  0  0  0  0
   -2.1858   -0.9952   -0.5759 H   0  0  0  0  0  0  0  0  0  0  0  0
   -4.4181   -0.0622   -1.0301 H   0  0  0  0  0  0  0  0  0  0  0  0
   -3.4001    0.1475    1.8067 H   0  0  0  0  0  0  0  0  0  0  0  0
   -3.5823    1.9309   -0.5725 H   0  0  0  0  0  0  0  0  0  0  0  0
   -2.8148    2.5783    2.3343 H   0  0  0  0  0  0  0  0  0  0  0  0
   -1.8242    4.6314    1.5842 H   0  0  0  0  0  0  0  0  0  0  0  0
   -0.4924    2.9266    1.9901 H   0  0  0  0  0  0  0  0  0  0  0  0
   -4.9115    3.5527    0.3837 H   0  0  0  0  0  0  0  0  0  0  0  0
   -4.9480    3.3480    2.1581 H   0  0  0  0  0  0  0  0  0  0  0  0
   -4.1440    4.7310    1.5049 H   0  0  0  0  0  0  0  0  0  0  0  0
   -1.4398    1.5902   -0.5974 H   0  0  0  0  0  0  0  0  0  0  0  0
   -5.9753    1.5043    0.9824 H   0  0  0  0  0  0  0  0  0  0  0  0
   -5.1854    1.2769    2.6382 H   0  0  0  0  0  0  0  0  0  0  0  0
   -5.8762   -0.0305    1.8013 H   0  0  0  0  0  0  0  0  0  0  0  0
   -8.0980   -2.5402   -1.1245 H   0  0  0  0  0  0  0  0  0  0  0  0
   -7.4696   -2.7546    0.5962 H   0  0  0  0  0  0  0  0  0  0  0  0
   -8.4884   -1.2560    0.1520 H   0  0  0  0  0  0  0  0  0  0  0  0
   -2.4477   -2.8152   -1.9190 H   0  0  0  0  0  0  0  0  0  0  0  0
   -4.0692   -3.2616   -1.2243 H   0  0  0  0  0  0  0  0  0  0  0  0
   -3.8520   -1.7956   -2.2391 H   0  0  0  0  0  0  0  0  0  0  0  0
   -4.4201   -1.5673    2.9628 H   0  0  0  0  0  0  0  0  0  0  0  0
   -3.3774   -2.9576    3.4396 H   0  0  0  0  0  0  0  0  0  0  0  0
   -5.0639   -3.2212    3.0964 H   0  0  0  0  0  0  0  0  0  0  0  0
    0.3472   -7.5490    1.1172 H   0  0  0  0  0  0  0  0  0  0  0  0
    0.6524   -8.0176   -0.5336 H   0  0  0  0  0  0  0  0  0  0  0  0
    1.9494   -7.4273    0.4623 H   0  0  0  0  0  0  0  0  0  0  0  0
   -0.6741   -5.5883   -4.0141 H   0  0  0  0  0  0  0  0  0  0  0  0
   -0.8765   -3.9862   -4.8288 H   0  0  0  0  0  0  0  0  0  0  0  0
    0.6086   -4.9955   -5.1161 H   0  0  0  0  0  0  0  0  0  0  0  0
    0.8081   -2.7850   -5.4600 H   0  0  0  0  0  0  0  0  0  0  0  0
    3.6243   -1.8423    1.3684 H   0  0  0  0  0  0  0  0  0  0  0  0
    2.4220    0.6039    1.9587 H   0  0  0  0  0  0  0  0  0  0  0  0
    4.7391    2.2943    3.3289 H   0  0  0  0  0  0  0  0  0  0  0  0
    4.5266    2.7710    1.6311 H   0  0  0  0  0  0  0  0  0  0  0  0
    6.7954    2.7832    1.1680 H   0  0  0  0  0  0  0  0  0  0  0  0
    6.6407    3.5990    2.7140 H   0  0  0  0  0  0  0  0  0  0  0  0
    7.6044    0.2324    1.4171 H   0  0  0  0  0  0  0  0  0  0  0  0
    8.0312   -0.2808    3.0376 H   0  0  0  0  0  0  0  0  0  0  0  0
    5.6937   -0.1596    3.7557 H   0  0  0  0  0  0  0  0  0  0  0  0
    5.8102   -1.1565    2.2699 H   0  0  0  0  0  0  0  0  0  0  0  0
    9.0905    2.3461    1.6405 H   0  0  0  0  0  0  0  0  0  0  0  0
    9.5599    1.3618    3.0121 H   0  0  0  0  0  0  0  0  0  0  0  0
    9.0916    3.0641    3.2635 H   0  0  0  0  0  0  0  0  0  0  0  0
    3.7953    5.1374   -3.6276 H   0  0  0  0  0  0  0  0  0  0  0  0
    4.4120    3.6051   -3.0548 H   0  0  0  0  0  0  0  0  0  0  0  0
    4.3013    4.9771   -1.9578 H   0  0  0  0  0  0  0  0  0  0  0  0
  1  2  1  0
  2  3  1  0
  3  4  2  0
  4  5  1  0
  5  6  2  0
  6  7  1  0
  7  8  2  0
  7  9  1  0
  9 10  1  0
 10 11  2  0
 11 12  1  0
 12 13  2  0
 13 14  1  0
 14 15  2  0
 15 16  1  0
 14 17  1  0
 17 18  2  0
 18 19  1  0
 19 20  2  0
 20 21  1  0
 21 22  2  0
 21 23  1  0
 23 24  1  0
 23 25  1  0
 25 26  1  0
 26 27  2  0
 27 28  1  0
 28 29  1  0
 29 30  1  0
 30 31  1  0
 31 32  1  0
 32 33  1  0
 33 34  1  0
 34 35  1  0
 33 36  1  0
 32 37  1  0
 31 38  1  0
 30 39  1  0
 39 40  1  0
 40 41  2  0
 40 42  1  0
 29 43  1  0
 28 44  1  0
 44 45  1  0
 23 46  1  1
 18 47  1  0
 17 48  1  0
 12 49  1  0
 11 50  1  0
 50 51  2  0
 51 52  1  0
 52 53  1  0
 53 54  1  0
 54 55  1  0
 55 56  1  0
 56 57  1  0
 55 58  1  0
  6 59  1  0
 34  2  1  0
 15 10  1  0
 20 13  1  0
 24 19  1  0
 57 52  1  0
  1 60  1  0
  1 61  1  0
  1 62  1  0
  2 63  1  6
  3 64  1  0
  4 65  1  0
  5 66  1  0
  9 67  1  0
 16 68  1  0
 26 69  1  0
 27 70  1  0
 28 71  1  1
 29 72  1  6
 30 73  1  6
 31 74  1  1
 32 75  1  6
 33 76  1  1
 34 77  1  1
 35 78  1  0
 36 79  1  0
 36 80  1  0
 36 81  1  0
 37 82  1  0
 38 83  1  0
 38 84  1  0
 38 85  1  0
 42 86  1  0
 42 87  1  0
 42 88  1  0
 43 89  1  0
 43 90  1  0
 43 91  1  0
 45 92  1  0
 45 93  1  0
 45 94  1  0
 46 95  1  0
 46 96  1  0
 46 97  1  0
 47 98  1  0
 47 99  1  0
 47100  1  0
 48101  1  0
 49102  1  0
 50103  1  0
 53104  1  0
 53105  1  0
 54106  1  0
 54107  1  0
 56108  1  0
 56109  1  0
 57110  1  0
 57111  1  0
 58112  1  0
 58113  1  0
 58114  1  0
 59115  1  0
 59116  1  0
 59117  1  0
M  END
$$$$
