
     RDKit          3D

 50 54  0  0  0  0  0  0  0  0999 V2000
   -7.5393    1.1147   -0.8788 C   0  0  0  0  0  0  0  0  0  0  0  0
   -6.6738    0.3887    0.0479 N   0  0  0  0  0  0  0  0  0  0  0  0
   -5.5383    1.2216    0.5053 C   0  0  0  0  0  0  0  0  0  0  0  0
   -4.1765    0.9430   -0.1763 C   0  0  0  0  0  0  0  0  0  0  0  0
   -3.8032   -0.4781   -0.0643 N   0  0  0  0  0  0  0  0  0  0  0  0
   -4.9097   -1.4413    0.0735 C   0  0  0  0  0  0  0  0  0  0  0  0
   -6.2083   -0.8796   -0.5562 C   0  0  0  0  0  0  0  0  0  0  0  0
   -2.4782   -0.8704    0.0791 C   0  0  0  0  0  0  0  0  0  0  0  0
   -1.4308   -0.0725   -0.4235 C   0  0  0  0  0  0  0  0  0  0  0  0
   -0.1083   -0.4896   -0.2237 C   0  0  0  0  0  0  0  0  0  0  0  0
    0.2262   -1.6519    0.4555 C   0  0  0  0  0  0  0  0  0  0  0  0
   -0.7982   -2.4798    0.9235 C   0  0  0  0  0  0  0  0  0  0  0  0
   -2.1305   -2.0777    0.7228 C   0  0  0  0  0  0  0  0  0  0  0  0
    1.5878   -1.7818    0.5686 N   0  0  0  0  0  0  0  0  0  0  0  0
    2.0982   -0.7459   -0.0736 C   0  0  0  0  0  0  0  0  0  0  0  0
    1.1008    0.0520   -0.5885 N   0  0  0  0  0  0  0  0  0  0  0  0
    3.4452   -0.3316   -0.2350 C   0  0  0  0  0  0  0  0  0  0  0  0
    4.0860    0.2990    0.7854 C   0  0  0  0  0  0  0  0  0  0  0  0
    5.5224    0.6615    0.6028 C   0  0  0  0  0  0  0  0  0  0  0  0
    6.1572    0.3571   -0.6149 C   0  0  0  0  0  0  0  0  0  0  0  0
    7.5124    0.6424   -0.8248 C   0  0  0  0  0  0  0  0  0  0  0  0
    8.2674    1.2314    0.1961 C   0  0  0  0  0  0  0  0  0  0  0  0
    7.6641    1.5454    1.4026 C   0  0  0  0  0  0  0  0  0  0  0  0
    6.3110    1.2625    1.5982 C   0  0  0  0  0  0  0  0  0  0  0  0
    5.7888    1.5657    2.8106 F   0  0  0  0  0  0  0  0  0  0  0  0
    5.4344   -0.2532   -1.6488 N   0  0  0  0  0  0  0  0  0  0  0  0
    4.1185   -0.6073   -1.5419 C   0  0  0  0  0  0  0  0  0  0  0  0
    3.5362   -1.1128   -2.4931 O   0  0  0  0  0  0  0  0  0  0  0  0
    3.4826    0.6239    2.0016 N   0  0  0  0  0  0  0  0  0  0  0  0
   -6.9898    1.4790   -1.7559 H   0  0  0  0  0  0  0  0  0  0  0  0
   -8.3647    0.4807   -1.2210 H   0  0  0  0  0  0  0  0  0  0  0  0
   -7.9917    1.9758   -0.3742 H   0  0  0  0  0  0  0  0  0  0  0  0
   -5.7724    2.2908    0.4177 H   0  0  0  0  0  0  0  0  0  0  0  0
   -5.4200    1.0333    1.5788 H   0  0  0  0  0  0  0  0  0  0  0  0
   -4.2251    1.2201   -1.2357 H   0  0  0  0  0  0  0  0  0  0  0  0
   -3.4363    1.5860    0.3104 H   0  0  0  0  0  0  0  0  0  0  0  0
   -5.0771   -1.6797    1.1339 H   0  0  0  0  0  0  0  0  0  0  0  0
   -4.6675   -2.3738   -0.4575 H   0  0  0  0  0  0  0  0  0  0  0  0
   -6.0281   -0.7436   -1.6355 H   0  0  0  0  0  0  0  0  0  0  0  0
   -7.0045   -1.6317   -0.4555 H   0  0  0  0  0  0  0  0  0  0  0  0
   -1.6326    0.8460   -0.9689 H   0  0  0  0  0  0  0  0  0  0  0  0
   -0.5637   -3.3983    1.4519 H   0  0  0  0  0  0  0  0  0  0  0  0
   -2.9027   -2.7286    1.1292 H   0  0  0  0  0  0  0  0  0  0  0  0
    1.2394    0.9248   -1.0770 H   0  0  0  0  0  0  0  0  0  0  0  0
    7.9911    0.3984   -1.7729 H   0  0  0  0  0  0  0  0  0  0  0  0
    9.3239    1.4419    0.0493 H   0  0  0  0  0  0  0  0  0  0  0  0
    8.2419    1.9901    2.2246 H   0  0  0  0  0  0  0  0  0  0  0  0
    5.8788   -0.4831   -2.5250 H   0  0  0  0  0  0  0  0  0  0  0  0
    2.7193   -0.0169    2.2438 H   0  0  0  0  0  0  0  0  0  0  0  0
    4.1380    0.7533    2.7733 H   0  0  0  0  0  0  0  0  0  0  0  0
  1  2  1  0
  2  3  1  0
  3  4  1  0
  4  5  1  0
  5  6  1  0
  6  7  1  0
  5  8  1  0
  8  9  2  0
  9 10  1  0
 10 11  2  0
 11 12  1  0
 12 13  2  0
 11 14  1  0
 14 15  2  0
 15 16  1  0
 15 17  1  0
 17 18  2  0
 18 19  1  0
 19 20  2  0
 20 21  1  0
 21 22  2  0
 22 23  1  0
 23 24  2  0
 24 25  1  0
 20 26  1  0
 26 27  1  0
 27 28  2  0
 18 29  1  0
  7  2  1  0
 13  8  1  0
 16 10  1  0
 27 17  1  0
 24 19  1  0
  1 30  1  0
  1 31  1  0
  1 32  1  0
  3 33  1  0
  3 34  1  0
  4 35  1  0
  4 36  1  0
  6 37  1  0
  6 38  1  0
  7 39  1  0
  7 40  1  0
  9 41  1  0
 12 42  1  0
 13 43  1  0
 16 44  1  0
 21 45  1  0
 22 46  1  0
 23 47  1  0
 26 48  1  0
 29 49  1  0
 29 50  1  0
M  END
$$$$
