
     RDKit          3D

 57 59  0  0  0  0  0  0  0  0999 V2000
   -5.8236    0.6716    1.1317 C   0  0  0  0  0  0  0  0  0  0  0  0
   -4.5759    1.5727    1.1950 C   0  0  0  0  0  0  0  0  0  0  0  0
   -3.7461    1.3910   -0.0239 N   0  0  0  0  0  0  0  0  0  0  0  0
   -3.5865    0.0784   -0.5108 C   0  0  0  0  0  0  0  0  0  0  0  0
   -4.3930   -0.9371   -0.0915 C   0  0  0  0  0  0  0  0  0  0  0  0
   -5.4089   -0.6859    0.8266 N   0  0  0  0  0  0  0  0  0  0  0  0
   -4.2826   -2.2323   -0.5305 N   0  0  0  0  0  0  0  0  0  0  0  0
   -3.3389   -2.5354   -1.3557 C   0  0  0  0  0  0  0  0  0  0  0  0
   -2.4699   -1.6187   -1.8380 N   0  0  0  0  0  0  0  0  0  0  0  0
   -2.5020   -0.3073   -1.4704 C   0  0  0  0  0  0  0  0  0  0  0  0
   -1.6619    0.4680   -1.9169 O   0  0  0  0  0  0  0  0  0  0  0  0
   -3.1854   -3.8085   -1.7916 N   0  0  0  0  0  0  0  0  0  0  0  0
   -3.0944    2.5138   -0.5067 C   0  0  0  0  0  0  0  0  0  0  0  0
   -3.1436    3.6280    0.0134 O   0  0  0  0  0  0  0  0  0  0  0  0
   -3.7944    1.3172    2.5176 C   0  0  0  0  0  0  0  0  0  0  0  0
   -2.4757    1.9734    2.5684 N   0  0  0  0  0  0  0  0  0  0  0  0
   -1.3573    1.2905    2.0645 C   0  0  0  0  0  0  0  0  0  0  0  0
   -0.3171    2.0374    1.4905 C   0  0  0  0  0  0  0  0  0  0  0  0
    0.8186    1.4195    0.9533 C   0  0  0  0  0  0  0  0  0  0  0  0
    0.9549    0.0316    1.0231 C   0  0  0  0  0  0  0  0  0  0  0  0
   -0.0458   -0.7211    1.6420 C   0  0  0  0  0  0  0  0  0  0  0  0
   -1.1766   -0.0924    2.1769 C   0  0  0  0  0  0  0  0  0  0  0  0
    2.1233   -0.6852    0.4433 C   0  0  0  0  0  0  0  0  0  0  0  0
    2.0224   -1.8559    0.0917 O   0  0  0  0  0  0  0  0  0  0  0  0
    3.2984    0.0229    0.3565 N   0  0  0  0  0  0  0  0  0  0  0  0
    4.5439   -0.5872   -0.1182 C   0  0  1  0  0  0  0  0  0  0  0  0
    4.5630   -0.5913   -1.6545 C   0  0  0  0  0  0  0  0  0  0  0  0
    5.7650   -1.3129   -2.2688 C   0  0  0  0  0  0  0  0  0  0  0  0
    6.9374   -0.3978   -2.5073 C   0  0  0  0  0  0  0  0  0  0  0  0
    6.9371    0.8211   -2.4797 O   0  0  0  0  0  0  0  0  0  0  0  0
    8.0576   -1.0819   -2.8085 O   0  0  0  0  0  0  0  0  0  0  0  0
    5.7342    0.1680    0.4829 C   0  0  0  0  0  0  0  0  0  0  0  0
    6.9042   -0.1790    0.4387 O   0  0  0  0  0  0  0  0  0  0  0  0
    5.3957    1.3352    1.0803 O   0  0  0  0  0  0  0  0  0  0  0  0
   -6.3782    0.6931    2.0756 H   0  0  0  0  0  0  0  0  0  0  0  0
   -6.4967    1.0226    0.3403 H   0  0  0  0  0  0  0  0  0  0  0  0
   -4.9244    2.6135    1.2212 H   0  0  0  0  0  0  0  0  0  0  0  0
   -6.1309   -1.3991    0.7685 H   0  0  0  0  0  0  0  0  0  0  0  0
   -1.6982   -1.8980   -2.4212 H   0  0  0  0  0  0  0  0  0  0  0  0
   -2.8516   -3.9371   -2.7370 H   0  0  0  0  0  0  0  0  0  0  0  0
   -3.9830   -4.3940   -1.5649 H   0  0  0  0  0  0  0  0  0  0  0  0
   -2.5350    2.3702   -1.4359 H   0  0  0  0  0  0  0  0  0  0  0  0
   -4.3905    1.7367    3.3381 H   0  0  0  0  0  0  0  0  0  0  0  0
   -3.7291    0.2489    2.7406 H   0  0  0  0  0  0  0  0  0  0  0  0
   -2.5273    2.9170    2.1730 H   0  0  0  0  0  0  0  0  0  0  0  0
   -0.4042    3.1199    1.4173 H   0  0  0  0  0  0  0  0  0  0  0  0
    1.5603    2.0386    0.4584 H   0  0  0  0  0  0  0  0  0  0  0  0
    0.0494   -1.8023    1.7174 H   0  0  0  0  0  0  0  0  0  0  0  0
   -1.9093   -0.7192    2.6751 H   0  0  0  0  0  0  0  0  0  0  0  0
    3.3929    0.9249    0.8124 H   0  0  0  0  0  0  0  0  0  0  0  0
    4.5782   -1.6110    0.2726 H   0  0  0  0  0  0  0  0  0  0  0  0
    4.4880    0.4365   -2.0317 H   0  0  0  0  0  0  0  0  0  0  0  0
    3.6588   -1.1050   -2.0060 H   0  0  0  0  0  0  0  0  0  0  0  0
    6.0762   -2.1500   -1.6352 H   0  0  0  0  0  0  0  0  0  0  0  0
    5.4775   -1.7103   -3.2492 H   0  0  0  0  0  0  0  0  0  0  0  0
    8.7411   -0.3870   -2.9071 H   0  0  0  0  0  0  0  0  0  0  0  0
    6.2601    1.7104    1.3544 H   0  0  0  0  0  0  0  0  0  0  0  0
  1  2  1  0
  2  3  1  0
  3  4  1  0
  4  5  2  0
  5  6  1  0
  5  7  1  0
  7  8  2  0
  8  9  1  0
  9 10  1  0
 10 11  2  0
  8 12  1  0
  3 13  1  0
 13 14  2  0
  2 15  1  0
 15 16  1  0
 16 17  1  0
 17 18  2  0
 18 19  1  0
 19 20  2  0
 20 21  1  0
 21 22  2  0
 20 23  1  0
 23 24  2  0
 23 25  1  0
 25 26  1  0
 26 27  1  0
 27 28  1  0
 28 29  1  0
 29 30  2  0
 29 31  1  0
 26 32  1  0
 32 33  2  0
 32 34  1  0
  6  1  1  0
 10  4  1  0
 22 17  1  0
  1 35  1  0
  1 36  1  0
  2 37  1  0
  6 38  1  0
  9 39  1  0
 12 40  1  0
 12 41  1  0
 13 42  1  0
 15 43  1  0
 15 44  1  0
 16 45  1  0
 18 46  1  0
 19 47  1  0
 21 48  1  0
 22 49  1  0
 25 50  1  0
 26 51  1  1
 27 52  1  0
 27 53  1  0
 28 54  1  0
 28 55  1  0
 31 56  1  0
 34 57  1  0
M  END
$$$$
