
     RDKit          3D

 73 77  0  0  0  0  0  0  0  0999 V2000
    9.7004    1.1651   -1.9334 C   0  0  0  0  0  0  0  0  0  0  0  0
    8.6102    1.3391   -0.9757 N   0  0  0  0  0  0  0  0  0  0  0  0
    8.6705    0.3623    0.1209 C   0  0  0  0  0  0  0  0  0  0  0  0
    7.6580   -0.7897   -0.0066 C   0  0  0  0  0  0  0  0  0  0  0  0
    6.2411   -0.3378   -0.0467 N   0  0  0  0  0  0  0  0  0  0  0  0
    6.1254    0.9651   -0.7356 C   0  0  0  0  0  0  0  0  0  0  0  0
    7.3076    1.3177   -1.6689 C   0  0  0  0  0  0  0  0  0  0  0  0
    5.4271   -1.4066   -0.6765 C   0  0  0  0  0  0  0  0  0  0  0  0
    3.9055   -1.2461   -0.6222 C   0  0  0  0  0  0  0  0  0  0  0  0
    3.2620   -1.6329   -1.6192 O   0  0  0  0  0  0  0  0  0  0  0  0
    3.2749   -0.8737    0.5538 N   0  0  0  0  0  0  0  0  0  0  0  0
    3.9302   -0.3136    1.7286 C   0  0  0  0  0  0  0  0  0  0  0  0
    1.8553   -0.8827    0.5974 C   0  0  0  0  0  0  0  0  0  0  0  0
    1.1083    0.0496   -0.1332 C   0  0  0  0  0  0  0  0  0  0  0  0
   -0.2817   -0.0271   -0.1281 C   0  0  0  0  0  0  0  0  0  0  0  0
   -0.9398   -1.0313    0.5987 C   0  0  0  0  0  0  0  0  0  0  0  0
   -0.1883   -1.9675    1.3050 C   0  0  0  0  0  0  0  0  0  0  0  0
    1.2060   -1.8821    1.3309 C   0  0  0  0  0  0  0  0  0  0  0  0
   -2.3124   -1.1690    0.4886 N   0  0  0  0  0  0  0  0  0  0  0  0
   -3.2139   -0.6576    1.2710 C   0  0  0  0  0  0  0  0  0  0  0  0
   -3.0980    0.2045    2.5092 C   0  0  0  0  0  0  0  0  0  0  0  0
   -1.8707    0.5607    3.0937 C   0  0  0  0  0  0  0  0  0  0  0  0
   -1.8077    1.3796    4.2278 C   0  0  0  0  0  0  0  0  0  0  0  0
   -2.9676    1.8606    4.8157 C   0  0  0  0  0  0  0  0  0  0  0  0
   -4.1991    1.5312    4.2661 C   0  0  0  0  0  0  0  0  0  0  0  0
   -4.2611    0.7136    3.1228 C   0  0  0  0  0  0  0  0  0  0  0  0
   -4.5583   -0.9445    0.7753 C   0  0  0  0  0  0  0  0  0  0  0  0
   -5.4601   -1.8322    1.3358 C   0  0  0  0  0  0  0  0  0  0  0  0
   -6.5993   -1.7996    0.5753 N   0  0  0  0  0  0  0  0  0  0  0  0
   -6.4580   -0.9388   -0.4887 C   0  0  0  0  0  0  0  0  0  0  0  0
   -5.1688   -0.4095   -0.4057 C   0  0  0  0  0  0  0  0  0  0  0  0
   -4.7393    0.4870   -1.4009 C   0  0  0  0  0  0  0  0  0  0  0  0
   -5.6102    0.8489   -2.4317 C   0  0  0  0  0  0  0  0  0  0  0  0
   -6.9094    0.3293   -2.4871 C   0  0  0  0  0  0  0  0  0  0  0  0
   -7.3562   -0.5829   -1.5112 C   0  0  0  0  0  0  0  0  0  0  0  0
   -7.7803    0.7844   -3.6067 C   0  0  0  0  0  0  0  0  0  0  0  0
   -7.4015    1.5122   -4.5126 O   0  0  0  0  0  0  0  0  0  0  0  0
   -9.0308    0.2764   -3.4640 O   0  0  0  0  0  0  0  0  0  0  0  0
   -9.9510    0.6525   -4.4881 C   0  0  0  0  0  0  0  0  0  0  0  0
   -5.3886   -2.5983    2.4188 O   0  0  0  0  0  0  0  0  0  0  0  0
   10.6735    1.2649   -1.4359 H   0  0  0  0  0  0  0  0  0  0  0  0
    9.6642    1.9435   -2.7062 H   0  0  0  0  0  0  0  0  0  0  0  0
    9.6650    0.1895   -2.4299 H   0  0  0  0  0  0  0  0  0  0  0  0
    8.4763    0.8999    1.0569 H   0  0  0  0  0  0  0  0  0  0  0  0
    9.6775   -0.0592    0.2265 H   0  0  0  0  0  0  0  0  0  0  0  0
    7.9087   -1.3581   -0.9160 H   0  0  0  0  0  0  0  0  0  0  0  0
    7.7737   -1.4709    0.8466 H   0  0  0  0  0  0  0  0  0  0  0  0
    5.1827    1.0508   -1.2885 H   0  0  0  0  0  0  0  0  0  0  0  0
    6.0760    1.7335    0.0476 H   0  0  0  0  0  0  0  0  0  0  0  0
    7.1302    2.3050   -2.1074 H   0  0  0  0  0  0  0  0  0  0  0  0
    7.3111    0.5911   -2.4954 H   0  0  0  0  0  0  0  0  0  0  0  0
    5.7108   -1.4960   -1.7387 H   0  0  0  0  0  0  0  0  0  0  0  0
    5.6541   -2.3714   -0.2007 H   0  0  0  0  0  0  0  0  0  0  0  0
    4.2126    0.7249    1.4987 H   0  0  0  0  0  0  0  0  0  0  0  0
    4.8231   -0.8909    1.9937 H   0  0  0  0  0  0  0  0  0  0  0  0
    3.2630   -0.2931    2.5932 H   0  0  0  0  0  0  0  0  0  0  0  0
    1.6070    0.8134   -0.7228 H   0  0  0  0  0  0  0  0  0  0  0  0
   -0.8689    0.6749   -0.7221 H   0  0  0  0  0  0  0  0  0  0  0  0
   -0.6902   -2.7832    1.8180 H   0  0  0  0  0  0  0  0  0  0  0  0
    1.7826   -2.6326    1.8621 H   0  0  0  0  0  0  0  0  0  0  0  0
   -0.9260    0.2271    2.6933 H   0  0  0  0  0  0  0  0  0  0  0  0
   -0.8421    1.6350    4.6513 H   0  0  0  0  0  0  0  0  0  0  0  0
   -2.9173    2.4894    5.7017 H   0  0  0  0  0  0  0  0  0  0  0  0
   -5.1108    1.8966    4.7138 H   0  0  0  0  0  0  0  0  0  0  0  0
   -5.2498    0.4977    2.7368 H   0  0  0  0  0  0  0  0  0  0  0  0
   -7.4420   -2.3184    0.7860 H   0  0  0  0  0  0  0  0  0  0  0  0
   -3.7340    0.9000   -1.3774 H   0  0  0  0  0  0  0  0  0  0  0  0
   -5.2726    1.5565   -3.1921 H   0  0  0  0  0  0  0  0  0  0  0  0
   -8.3514   -1.0065   -1.5430 H   0  0  0  0  0  0  0  0  0  0  0  0
   -9.8229    0.0023   -5.3591 H   0  0  0  0  0  0  0  0  0  0  0  0
   -9.8437    1.7032   -4.7794 H   0  0  0  0  0  0  0  0  0  0  0  0
  -10.9623    0.5145   -4.0922 H   0  0  0  0  0  0  0  0  0  0  0  0
   -5.2884   -3.5138    2.0882 H   0  0  0  0  0  0  0  0  0  0  0  0
  1  2  1  0
  2  3  1  0
  3  4  1  0
  4  5  1  0
  5  6  1  0
  6  7  1  0
  5  8  1  0
  8  9  1  0
  9 10  2  0
  9 11  1  0
 11 12  1  0
 11 13  1  0
 13 14  2  0
 14 15  1  0
 15 16  2  0
 16 17  1  0
 17 18  2  0
 16 19  1  0
 19 20  2  3
 20 21  1  0
 21 22  2  0
 22 23  1  0
 23 24  2  0
 24 25  1  0
 25 26  2  0
 20 27  1  0
 27 28  2  0
 28 29  1  0
 29 30  1  0
 30 31  2  0
 31 32  1  0
 32 33  2  0
 33 34  1  0
 34 35  2  0
 34 36  1  0
 36 37  2  0
 36 38  1  0
 38 39  1  0
 28 40  1  0
  7  2  1  0
 18 13  1  0
 26 21  1  0
 31 27  1  0
 35 30  1  0
  1 41  1  0
  1 42  1  0
  1 43  1  0
  3 44  1  0
  3 45  1  0
  4 46  1  0
  4 47  1  0
  6 48  1  0
  6 49  1  0
  7 50  1  0
  7 51  1  0
  8 52  1  0
  8 53  1  0
 12 54  1  0
 12 55  1  0
 12 56  1  0
 14 57  1  0
 15 58  1  0
 17 59  1  0
 18 60  1  0
 22 61  1  0
 23 62  1  0
 24 63  1  0
 25 64  1  0
 26 65  1  0
 29 66  1  0
 32 67  1  0
 33 68  1  0
 35 69  1  0
 39 70  1  0
 39 71  1  0
 39 72  1  0
 40 73  1  0
M  END
$$$$
