
     RDKit          3D

101108  0  0  0  0  0  0  0  0999 V2000
   -1.3683    2.8314   -3.3355 C   0  0  0  0  0  0  0  0  0  0  0  0
   -1.2600    1.5362   -3.1633 C   0  0  0  0  0  0  0  0  0  0  0  0
   -0.0377    0.9826   -2.9172 N   0  0  0  0  0  0  0  0  0  0  0  0
    1.0690    1.8132   -2.8482 C   0  0  0  0  0  0  0  0  0  0  0  0
    2.0704    1.4607   -2.3056 O   0  0  0  0  0  0  0  0  0  0  0  0
    1.0058    3.0799   -3.2765 N   0  0  0  0  0  0  0  0  0  0  0  0
   -0.1839    3.7176   -3.1986 C   0  0  0  0  0  0  0  0  0  0  0  0
   -0.2948    4.9025   -2.9290 O   0  0  0  0  0  0  0  0  0  0  0  0
    0.1918   -0.3875   -2.5881 C   0  0  1  0  0  0  0  0  0  0  0  0
    0.2134   -0.7350   -1.1202 C   0  0  1  0  0  0  0  0  0  0  0  0
    0.1743   -2.2604   -1.2346 C   0  0  1  0  0  0  0  0  0  0  0  0
   -0.9185   -2.3781   -2.2835 C   0  0  2  0  0  0  0  0  0  0  0  0
   -0.8351   -1.2122   -3.1035 O   0  0  0  0  0  0  0  0  0  0  0  0
   -2.2281   -2.4032   -1.5092 C   0  0  0  0  0  0  0  0  0  0  0  0
   -3.3508   -2.3292   -2.3382 O   0  0  0  0  0  0  0  0  0  0  0  0
   -4.7957   -2.3090   -1.5248 P   0  0  0  0  0  5  0  0  0  0  0  0
   -5.9047   -2.2731   -2.5141 O   0  0  0  0  0  0  0  0  0  0  0  0
   -4.9498   -3.6423   -0.5312 O   0  0  0  0  0  0  0  0  0  0  0  0
   -4.8140   -0.9741   -0.5207 O   0  0  0  0  0  0  0  0  0  0  0  0
   -6.0037   -0.1766   -0.7068 C   0  0  2  0  0  0  0  0  0  0  0  0
   -5.6749    1.2523   -1.0399 C   0  0  2  0  0  0  0  0  0  0  0  0
   -5.5220    1.9113    0.1987 O   0  0  0  0  0  0  0  0  0  0  0  0
   -5.6280    0.9574    1.2492 C   0  0  2  0  0  0  0  0  0  0  0  0
   -6.6398    0.0121    0.6568 C   0  0  2  0  0  0  0  0  0  0  0  0
   -6.6663   -1.1888    1.3579 O   0  0  0  0  0  0  0  0  0  0  0  0
   -6.0558    1.5528    2.4552 N   0  0  0  0  0  0  0  0  0  0  0  0
   -6.1663    2.8694    2.8080 C   0  0  0  0  0  0  0  0  0  0  0  0
   -6.5549    2.9868    4.0308 N   0  0  0  0  0  0  0  0  0  0  0  0
   -6.7345    1.7356    4.5469 C   0  0  0  0  0  0  0  0  0  0  0  0
   -7.1716    1.3291    5.8117 C   0  0  0  0  0  0  0  0  0  0  0  0
   -7.2902   -0.0094    6.0388 N   0  0  0  0  0  0  0  0  0  0  0  0
   -6.9219   -0.8651    5.0830 C   0  0  0  0  0  0  0  0  0  0  0  0
   -6.4735   -0.4752    3.8626 N   0  0  0  0  0  0  0  0  0  0  0  0
   -6.4236    0.8479    3.6089 C   0  0  0  0  0  0  0  0  0  0  0  0
   -7.4488    2.3402    6.7758 N   0  0  0  0  0  0  0  0  0  0  0  0
   -6.8220    1.7819   -1.8616 C   0  0  0  0  0  0  0  0  0  0  0  0
   -6.6711    3.1751   -2.0547 O   0  0  0  0  0  0  0  0  0  0  0  0
   -8.1589    3.8533   -2.3053 P   0  0  0  0  0  4  0  0  0  0  0  0
   -8.4729    3.3459   -3.8863 O   0  0  0  0  0  0  0  0  0  0  0  0
   -8.1918    5.5061   -2.5105 O   0  0  0  0  0  0  0  0  0  0  0  0
    1.4252   -2.6505   -1.7875 O   0  0  0  0  0  0  0  0  0  0  0  0
    2.2811   -3.7878   -0.9421 P   0  0  0  0  0  5  0  0  0  0  0  0
    2.0838   -3.6034    0.5308 O   0  0  0  0  0  0  0  0  0  0  0  0
    1.7790   -5.3309   -1.3803 O   0  0  0  0  0  0  0  0  0  0  0  0
    3.8686   -3.5493   -1.3407 O   0  0  0  0  0  0  0  0  0  0  0  0
    4.3993   -2.6353   -0.3592 C   0  0  0  0  0  0  0  0  0  0  0  0
    5.7277   -2.0904   -0.7167 C   0  0  2  0  0  0  0  0  0  0  0  0
    6.8302   -3.1141   -0.5816 C   0  0  2  0  0  0  0  0  0  0  0  0
    8.0572   -2.2350   -0.5208 C   0  0  2  0  0  0  0  0  0  0  0  0
    7.5115   -0.9373    0.0109 C   0  0  1  0  0  0  0  0  0  0  0  0
    6.1394   -1.1822    0.2866 O   0  0  0  0  0  0  0  0  0  0  0  0
    8.1593   -0.5936    1.2305 N   0  0  0  0  0  0  0  0  0  0  0  0
    8.3696   -1.4295    2.2890 C   0  0  0  0  0  0  0  0  0  0  0  0
    9.0228   -0.8302    3.2616 N   0  0  0  0  0  0  0  0  0  0  0  0
    9.2268    0.4397    2.8164 C   0  0  0  0  0  0  0  0  0  0  0  0
    8.7186    0.6035    1.5831 C   0  0  0  0  0  0  0  0  0  0  0  0
    8.7779    1.7586    0.8644 N   0  0  0  0  0  0  0  0  0  0  0  0
    9.3633    2.7818    1.4422 C   0  0  0  0  0  0  0  0  0  0  0  0
    9.9176    2.7131    2.7143 N   0  0  0  0  0  0  0  0  0  0  0  0
    9.8704    1.5443    3.4778 C   0  0  0  0  0  0  0  0  0  0  0  0
   10.3105    1.4739    4.5956 O   0  0  0  0  0  0  0  0  0  0  0  0
    9.4741    4.0373    0.8207 N   0  0  0  0  0  0  0  0  0  0  0  0
    8.5254   -2.0173   -1.8336 O   0  0  0  0  0  0  0  0  0  0  0  0
    6.8902   -4.0043   -1.6751 O   0  0  0  0  0  0  0  0  0  0  0  0
    1.3812   -0.2717   -0.4869 O   0  0  0  0  0  0  0  0  0  0  0  0
   -2.2953    3.3326   -3.5309 H   0  0  0  0  0  0  0  0  0  0  0  0
   -2.1174    0.8927   -3.1605 H   0  0  0  0  0  0  0  0  0  0  0  0
    1.8215    3.7039   -3.0481 H   0  0  0  0  0  0  0  0  0  0  0  0
    1.1454   -0.7088   -3.0413 H   0  0  0  0  0  0  0  0  0  0  0  0
   -0.6938   -0.3650   -0.6066 H   0  0  0  0  0  0  0  0  0  0  0  0
   -0.1046   -2.7632   -0.3210 H   0  0  0  0  0  0  0  0  0  0  0  0
   -0.7728   -3.2446   -2.8876 H   0  0  0  0  0  0  0  0  0  0  0  0
   -2.2682   -3.3802   -1.0189 H   0  0  0  0  0  0  0  0  0  0  0  0
   -2.2608   -1.6366   -0.7256 H   0  0  0  0  0  0  0  0  0  0  0  0
   -4.1712   -3.7645    0.0618 H   0  0  0  0  0  0  0  0  0  0  0  0
   -6.7037   -0.5868   -1.4538 H   0  0  0  0  0  0  0  0  0  0  0  0
   -4.7528    1.4028   -1.5895 H   0  0  0  0  0  0  0  0  0  0  0  0
   -4.6778    0.4355    1.3300 H   0  0  0  0  0  0  0  0  0  0  0  0
   -7.6439    0.4563    0.5633 H   0  0  0  0  0  0  0  0  0  0  0  0
   -7.1956   -1.8900    0.9326 H   0  0  0  0  0  0  0  0  0  0  0  0
   -5.9410    3.6991    2.1319 H   0  0  0  0  0  0  0  0  0  0  0  0
   -6.9458   -1.9762    5.2129 H   0  0  0  0  0  0  0  0  0  0  0  0
   -8.4278    2.6631    6.6837 H   0  0  0  0  0  0  0  0  0  0  0  0
   -7.1188    2.1382    7.7240 H   0  0  0  0  0  0  0  0  0  0  0  0
   -6.7367    1.3171   -2.8498 H   0  0  0  0  0  0  0  0  0  0  0  0
   -7.8020    1.4883   -1.4831 H   0  0  0  0  0  0  0  0  0  0  0  0
   -8.0627    5.7230   -3.4758 H   0  0  0  0  0  0  0  0  0  0  0  0
    1.1732   -5.2564   -2.1548 H   0  0  0  0  0  0  0  0  0  0  0  0
    4.4976   -3.2136    0.5541 H   0  0  0  0  0  0  0  0  0  0  0  0
    3.6720   -1.8028   -0.1821 H   0  0  0  0  0  0  0  0  0  0  0  0
    5.7803   -1.5749   -1.6890 H   0  0  0  0  0  0  0  0  0  0  0  0
    6.7424   -3.6411    0.3744 H   0  0  0  0  0  0  0  0  0  0  0  0
    8.8339   -2.6723    0.1368 H   0  0  0  0  0  0  0  0  0  0  0  0
    7.6057   -0.1257   -0.7319 H   0  0  0  0  0  0  0  0  0  0  0  0
    8.0450   -2.4733    2.3272 H   0  0  0  0  0  0  0  0  0  0  0  0
   10.3534    3.5093    3.1425 H   0  0  0  0  0  0  0  0  0  0  0  0
    9.5697    4.9238    1.3468 H   0  0  0  0  0  0  0  0  0  0  0  0
    9.6232    4.1106   -0.2000 H   0  0  0  0  0  0  0  0  0  0  0  0
    8.3608   -1.0944   -2.1148 H   0  0  0  0  0  0  0  0  0  0  0  0
    7.8493   -4.1840   -1.8277 H   0  0  0  0  0  0  0  0  0  0  0  0
    1.4180   -0.6936    0.3941 H   0  0  0  0  0  0  0  0  0  0  0  0
  1  2  2  0
  2  3  1  0
  3  4  1  0
  4  5  2  0
  4  6  1  0
  6  7  1  0
  7  8  2  0
  3  9  1  0
  9 10  1  0
 10 11  1  0
 11 12  1  0
 12 13  1  0
 12 14  1  0
 14 15  1  0
 15 16  1  0
 16 17  2  0
 16 18  1  0
 16 19  1  0
 19 20  1  0
 20 21  1  0
 21 22  1  0
 22 23  1  0
 23 24  1  0
 24 25  1  0
 23 26  1  0
 26 27  1  0
 27 28  2  0
 28 29  1  0
 29 30  2  0
 30 31  1  0
 31 32  2  0
 32 33  1  0
 33 34  2  0
 30 35  1  0
 21 36  1  0
 36 37  1  0
 37 38  1  0
 38 39  2  0
 38 40  1  0
 11 41  1  0
 41 42  1  0
 42 43  2  0
 42 44  1  0
 42 45  1  0
 45 46  1  0
 46 47  1  0
 47 48  1  0
 48 49  1  0
 49 50  1  0
 50 51  1  0
 50 52  1  0
 52 53  1  0
 53 54  2  0
 54 55  1  0
 55 56  2  0
 56 57  1  0
 57 58  2  0
 58 59  1  0
 59 60  1  0
 60 61  2  0
 58 62  1  0
 49 63  1  0
 48 64  1  0
 10 65  1  0
  7  1  1  0
 13  9  1  0
 24 20  1  0
 34 26  1  0
 34 29  1  0
 51 47  1  0
 56 52  1  0
 60 55  1  0
  1 66  1  0
  2 67  1  0
  6 68  1  0
  9 69  1  6
 10 70  1  1
 11 71  1  1
 12 72  1  6
 14 73  1  0
 14 74  1  0
 18 75  1  0
 20 76  1  6
 21 77  1  6
 23 78  1  1
 24 79  1  6
 25 80  1  0
 27 81  1  0
 32 82  1  0
 35 83  1  0
 35 84  1  0
 36 85  1  0
 36 86  1  0
 40 87  1  0
 44 88  1  0
 46 89  1  0
 46 90  1  0
 47 91  1  6
 48 92  1  1
 49 93  1  1
 50 94  1  6
 53 95  1  0
 59 96  1  0
 62 97  1  0
 62 98  1  0
 63 99  1  0
 64100  1  0
 65101  1  0
M  CHG  1  38   1
M  END
$$$$
