
     RDKit          3D

 63 67  0  0  0  0  0  0  0  0999 V2000
   -0.6191   -1.1634    1.7483 C   0  0  0  0  0  0  0  0  0  0  0  0
   -0.6746    0.1913    2.1770 O   0  0  0  0  0  0  0  0  0  0  0  0
   -0.5275    1.1152    1.1470 C   0  0  0  0  0  0  0  0  0  0  0  0
   -1.4247    2.1146    1.0183 C   0  0  0  0  0  0  0  0  0  0  0  0
   -1.2892    3.1561    0.0200 C   0  0  0  0  0  0  0  0  0  0  0  0
   -0.2904    3.1511   -0.8703 C   0  0  0  0  0  0  0  0  0  0  0  0
    0.7142    2.1199   -0.8377 C   0  0  0  0  0  0  0  0  0  0  0  0
    1.7627    2.0087   -1.6670 C   0  0  0  0  0  0  0  0  0  0  0  0
    2.0988    2.8458   -2.7164 N   0  0  0  0  0  0  0  0  0  0  0  0
    3.4526    2.5274   -3.1695 C   0  0  0  0  0  0  0  0  0  0  0  0
    3.7128    1.1166   -2.5765 C   0  0  0  0  0  0  0  0  0  0  0  0
    2.7010    0.9962   -1.5267 N   0  0  0  0  0  0  0  0  0  0  0  0
    2.5956    0.0280   -0.5492 C   0  0  0  0  0  0  0  0  0  0  0  0
    3.3446   -0.9724   -0.2324 N   0  0  0  0  0  0  0  0  0  0  0  0
    4.4851   -1.2661   -0.9046 C   0  0  0  0  0  0  0  0  0  0  0  0
    4.5564   -1.5383   -2.0978 O   0  0  0  0  0  0  0  0  0  0  0  0
    5.7110   -1.3064   -0.0869 C   0  0  0  0  0  0  0  0  0  0  0  0
    6.9220   -1.6745   -0.6267 C   0  0  0  0  0  0  0  0  0  0  0  0
    8.0740   -1.7217    0.0823 N   0  0  0  0  0  0  0  0  0  0  0  0
    7.9966   -1.3793    1.3709 C   0  0  0  0  0  0  0  0  0  0  0  0
    6.8711   -1.0230    1.9981 N   0  0  0  0  0  0  0  0  0  0  0  0
    5.7428   -0.9905    1.2509 C   0  0  0  0  0  0  0  0  0  0  0  0
    9.1572   -1.4326    2.1134 N   0  0  0  0  0  0  0  0  0  0  0  0
    1.5366    0.0892    0.3267 N   0  0  0  0  0  0  0  0  0  0  0  0
    0.6584    1.0385    0.2029 C   0  0  0  0  0  0  0  0  0  0  0  0
   -2.4856    2.2014    1.9041 O   0  0  0  0  0  0  0  0  0  0  0  0
   -3.7919    2.4566    1.3858 C   0  0  0  0  0  0  0  0  0  0  0  0
   -4.3140    1.3999    0.4136 C   0  0  0  0  0  0  0  0  0  0  0  0
   -4.3573   -0.0002    1.0363 C   0  0  0  0  0  0  0  0  0  0  0  0
   -4.9125   -0.9590    0.0749 N   0  0  0  0  0  0  0  0  0  0  0  0
   -6.3893   -0.9422    0.0137 C   0  0  0  0  0  0  0  0  0  0  0  0
   -7.0465   -2.1426    0.7174 C   0  0  0  0  0  0  0  0  0  0  0  0
   -6.6300   -3.4051    0.1809 O   0  0  0  0  0  0  0  0  0  0  0  0
   -5.2962   -3.3773   -0.3400 C   0  0  0  0  0  0  0  0  0  0  0  0
   -4.4147   -2.3229    0.3425 C   0  0  0  0  0  0  0  0  0  0  0  0
    0.3964   -1.5482    1.8302 H   0  0  0  0  0  0  0  0  0  0  0  0
   -1.2513   -1.7514    2.4175 H   0  0  0  0  0  0  0  0  0  0  0  0
   -1.0053   -1.2966    0.7366 H   0  0  0  0  0  0  0  0  0  0  0  0
   -2.0034    3.9689    0.0020 H   0  0  0  0  0  0  0  0  0  0  0  0
   -0.2206    3.9360   -1.6145 H   0  0  0  0  0  0  0  0  0  0  0  0
    1.8623    3.8254   -2.5830 H   0  0  0  0  0  0  0  0  0  0  0  0
    4.1599    3.2544   -2.7551 H   0  0  0  0  0  0  0  0  0  0  0  0
    3.5264    2.5352   -4.2610 H   0  0  0  0  0  0  0  0  0  0  0  0
    4.7369    1.0591   -2.1970 H   0  0  0  0  0  0  0  0  0  0  0  0
    3.5490    0.3623   -3.3517 H   0  0  0  0  0  0  0  0  0  0  0  0
    7.0184   -1.9589   -1.6705 H   0  0  0  0  0  0  0  0  0  0  0  0
    4.8479   -0.6947    1.7933 H   0  0  0  0  0  0  0  0  0  0  0  0
    8.9380   -1.5401    3.0929 H   0  0  0  0  0  0  0  0  0  0  0  0
    9.7956   -2.1007    1.7036 H   0  0  0  0  0  0  0  0  0  0  0  0
   -4.4597    2.4895    2.2533 H   0  0  0  0  0  0  0  0  0  0  0  0
   -3.8408    3.4541    0.9378 H   0  0  0  0  0  0  0  0  0  0  0  0
   -3.6797    1.3695   -0.4800 H   0  0  0  0  0  0  0  0  0  0  0  0
   -5.3122    1.7055    0.0846 H   0  0  0  0  0  0  0  0  0  0  0  0
   -3.3330   -0.2892    1.2874 H   0  0  0  0  0  0  0  0  0  0  0  0
   -4.9249   -0.0069    1.9745 H   0  0  0  0  0  0  0  0  0  0  0  0
   -6.6622   -0.9773   -1.0475 H   0  0  0  0  0  0  0  0  0  0  0  0
   -6.8080   -0.0121    0.4099 H   0  0  0  0  0  0  0  0  0  0  0  0
   -8.1346   -2.0876    0.6163 H   0  0  0  0  0  0  0  0  0  0  0  0
   -6.8196   -2.1341    1.7901 H   0  0  0  0  0  0  0  0  0  0  0  0
   -5.3520   -3.1961   -1.4195 H   0  0  0  0  0  0  0  0  0  0  0  0
   -4.8680   -4.3733   -0.2020 H   0  0  0  0  0  0  0  0  0  0  0  0
   -4.3956   -2.5206    1.4240 H   0  0  0  0  0  0  0  0  0  0  0  0
   -3.3897   -2.4112   -0.0395 H   0  0  0  0  0  0  0  0  0  0  0  0
  1  2  1  0
  2  3  1  0
  3  4  2  0
  4  5  1  0
  5  6  2  0
  6  7  1  0
  7  8  2  0
  8  9  1  0
  9 10  1  0
 10 11  1  0
 11 12  1  0
 12 13  1  0
 13 14  2  3
 14 15  1  0
 15 16  2  0
 15 17  1  0
 17 18  2  0
 18 19  1  0
 19 20  2  0
 20 21  1  0
 21 22  2  0
 20 23  1  0
 13 24  1  0
 24 25  2  0
  4 26  1  0
 26 27  1  0
 27 28  1  0
 28 29  1  0
 29 30  1  0
 30 31  1  0
 31 32  1  0
 32 33  1  0
 33 34  1  0
 34 35  1  0
 25  3  1  0
 25  7  1  0
 12  8  1  0
 22 17  1  0
 35 30  1  0
  1 36  1  0
  1 37  1  0
  1 38  1  0
  5 39  1  0
  6 40  1  0
  9 41  1  0
 10 42  1  0
 10 43  1  0
 11 44  1  0
 11 45  1  0
 18 46  1  0
 22 47  1  0
 23 48  1  0
 23 49  1  0
 27 50  1  0
 27 51  1  0
 28 52  1  0
 28 53  1  0
 29 54  1  0
 29 55  1  0
 31 56  1  0
 31 57  1  0
 32 58  1  0
 32 59  1  0
 34 60  1  0
 34 61  1  0
 35 62  1  0
 35 63  1  0
M  END
$$$$
