
     RDKit          3D

 42 46  0  0  0  0  0  0  0  0999 V2000
    0.4332    3.8669   -1.5043 C   0  0  0  0  0  0  0  0  0  0  0  0
    0.5990    3.5236   -0.1165 N   0  0  0  0  0  0  0  0  0  0  0  0
    0.2778    2.3628    0.5448 C   0  0  0  0  0  0  0  0  0  0  0  0
    0.6179    2.4928    1.8134 N   0  0  0  0  0  0  0  0  0  0  0  0
    1.1540    3.7456    1.8751 C   0  0  0  0  0  0  0  0  0  0  0  0
    1.1545    4.4152    0.7216 N   0  0  0  0  0  0  0  0  0  0  0  0
   -0.3461    1.1606   -0.1042 C   0  0  2  0  0  0  0  0  0  0  0  0
   -1.1438    0.2898    0.8923 C   0  0  2  0  0  0  0  0  0  0  0  0
   -0.2630   -0.4139    1.8541 N   0  0  0  0  0  0  0  0  0  0  0  0
    0.8380   -1.0781    1.2858 C   0  0  0  0  0  0  0  0  0  0  0  0
    1.5061   -2.0499    2.0348 C   0  0  0  0  0  0  0  0  0  0  0  0
    2.6152   -2.7076    1.5033 C   0  0  0  0  0  0  0  0  0  0  0  0
    3.0944   -2.4031    0.2360 C   0  0  0  0  0  0  0  0  0  0  0  0
    2.4599   -1.4043   -0.4999 C   0  0  0  0  0  0  0  0  0  0  0  0
    1.3600   -0.7401    0.0292 C   0  0  0  0  0  0  0  0  0  0  0  0
    0.7695    0.3553   -0.7468 C   0  0  0  0  0  0  0  0  0  0  0  0
    1.1780    0.6846   -1.9408 N   0  0  0  0  0  0  0  0  0  0  0  0
    2.2150   -0.0266   -2.4694 N   0  0  0  0  0  0  0  0  0  0  0  0
    2.9251   -1.0274   -1.8383 C   0  0  0  0  0  0  0  0  0  0  0  0
    3.8839   -1.5841   -2.3641 O   0  0  0  0  0  0  0  0  0  0  0  0
    3.2280   -3.6499    2.2287 F   0  0  0  0  0  0  0  0  0  0  0  0
   -2.1401   -0.7115    0.2859 C   0  0  0  0  0  0  0  0  0  0  0  0
   -2.3226   -0.8980   -1.0997 C   0  0  0  0  0  0  0  0  0  0  0  0
   -3.2857   -1.7884   -1.5786 C   0  0  0  0  0  0  0  0  0  0  0  0
   -4.0715   -2.5075   -0.6904 C   0  0  0  0  0  0  0  0  0  0  0  0
   -3.9125   -2.3528    0.6794 C   0  0  0  0  0  0  0  0  0  0  0  0
   -2.9535   -1.4602    1.1644 C   0  0  0  0  0  0  0  0  0  0  0  0
   -4.9999   -3.3525   -1.1567 F   0  0  0  0  0  0  0  0  0  0  0  0
   -0.3978    3.3066   -1.9353 H   0  0  0  0  0  0  0  0  0  0  0  0
    1.3633    3.6343   -2.0301 H   0  0  0  0  0  0  0  0  0  0  0  0
    0.2132    4.9373   -1.5838 H   0  0  0  0  0  0  0  0  0  0  0  0
    1.5514    4.1816    2.7784 H   0  0  0  0  0  0  0  0  0  0  0  0
   -1.0277    1.5112   -0.8856 H   0  0  0  0  0  0  0  0  0  0  0  0
   -1.7687    0.9694    1.4885 H   0  0  0  0  0  0  0  0  0  0  0  0
    0.0936    0.2768    2.5352 H   0  0  0  0  0  0  0  0  0  0  0  0
    1.1543   -2.3206    3.0263 H   0  0  0  0  0  0  0  0  0  0  0  0
    3.9583   -2.9304   -0.1549 H   0  0  0  0  0  0  0  0  0  0  0  0
    2.5344    0.2507   -3.3942 H   0  0  0  0  0  0  0  0  0  0  0  0
   -1.7348   -0.3619   -1.8373 H   0  0  0  0  0  0  0  0  0  0  0  0
   -3.4367   -1.9255   -2.6466 H   0  0  0  0  0  0  0  0  0  0  0  0
   -4.5372   -2.9223    1.3598 H   0  0  0  0  0  0  0  0  0  0  0  0
   -2.8364   -1.3485    2.2404 H   0  0  0  0  0  0  0  0  0  0  0  0
  1  2  1  0
  2  3  1  0
  3  4  2  0
  4  5  1  0
  5  6  2  0
  3  7  1  0
  7  8  1  0
  8  9  1  0
  9 10  1  0
 10 11  2  0
 11 12  1  0
 12 13  2  0
 13 14  1  0
 14 15  2  0
 15 16  1  0
 16 17  2  0
 17 18  1  0
 18 19  1  0
 19 20  2  0
 12 21  1  0
  8 22  1  0
 22 23  2  0
 23 24  1  0
 24 25  2  0
 25 26  1  0
 26 27  2  0
 25 28  1  0
  6  2  1  0
 16  7  1  0
 15 10  1  0
 19 14  1  0
 27 22  1  0
  1 29  1  0
  1 30  1  0
  1 31  1  0
  5 32  1  0
  7 33  1  6
  8 34  1  1
  9 35  1  0
 11 36  1  0
 13 37  1  0
 18 38  1  0
 23 39  1  0
 24 40  1  0
 26 41  1  0
 27 42  1  0
M  END
$$$$
