
     RDKit          3D

 40 42  0  0  0  0  0  0  0  0999 V2000
   -4.7992    0.3770   -0.9944 C   0  0  0  0  0  0  0  0  0  0  0  0
   -4.7293    0.7696    0.4804 C   0  0  0  0  0  0  0  0  0  0  0  0
   -3.3785    1.3901    0.8289 C   0  0  0  0  0  0  0  0  0  0  0  0
   -2.2370    0.5000    0.5692 N   0  0  0  0  0  0  0  0  0  0  0  0
   -2.4878   -0.4963   -0.4823 C   0  0  0  0  0  0  0  0  0  0  0  0
   -3.4264    0.0284   -1.5672 C   0  0  0  0  0  0  0  0  0  0  0  0
   -1.7223   -0.1089    1.8135 C   0  0  0  0  0  0  0  0  0  0  0  0
   -0.4428   -0.9552    1.6656 C   0  0  0  0  0  0  0  0  0  0  0  0
    0.6153   -0.1278    1.1777 O   0  0  0  0  0  0  0  0  0  0  0  0
    1.7975   -0.8109    0.9550 C   0  0  0  0  0  0  0  0  0  0  0  0
    1.8894   -2.0992    1.3633 N   0  0  0  0  0  0  0  0  0  0  0  0
    3.0642   -2.7208    1.1428 C   0  0  0  0  0  0  0  0  0  0  0  0
    4.1558   -2.1217    0.5370 C   0  0  0  0  0  0  0  0  0  0  0  0
    4.0506   -0.7901    0.1218 C   0  0  0  0  0  0  0  0  0  0  0  0
    2.8389   -0.0985    0.3312 C   0  0  0  0  0  0  0  0  0  0  0  0
    2.7392    1.2469   -0.0929 C   0  0  0  0  0  0  0  0  0  0  0  0
    3.8147    1.8906   -0.7077 C   0  0  0  0  0  0  0  0  0  0  0  0
    4.9992    1.1935   -0.9036 C   0  0  0  0  0  0  0  0  0  0  0  0
    5.1256   -0.1313   -0.4974 C   0  0  0  0  0  0  0  0  0  0  0  0
    6.0770    1.7792   -1.4995 O   0  0  0  0  0  0  0  0  0  0  0  0
   -5.2326    1.1949   -1.5822 H   0  0  0  0  0  0  0  0  0  0  0  0
   -5.4805   -0.4753   -1.1034 H   0  0  0  0  0  0  0  0  0  0  0  0
   -4.8953   -0.1175    1.1049 H   0  0  0  0  0  0  0  0  0  0  0  0
   -5.5401    1.4693    0.7132 H   0  0  0  0  0  0  0  0  0  0  0  0
   -3.2411    2.2936    0.2208 H   0  0  0  0  0  0  0  0  0  0  0  0
   -3.3914    1.7397    1.8686 H   0  0  0  0  0  0  0  0  0  0  0  0
   -2.9255   -1.4103   -0.0592 H   0  0  0  0  0  0  0  0  0  0  0  0
   -1.5363   -0.7742   -0.9496 H   0  0  0  0  0  0  0  0  0  0  0  0
   -3.5373   -0.7139   -2.3659 H   0  0  0  0  0  0  0  0  0  0  0  0
   -2.9853    0.9200   -2.0316 H   0  0  0  0  0  0  0  0  0  0  0  0
   -2.5014   -0.7273    2.2769 H   0  0  0  0  0  0  0  0  0  0  0  0
   -1.4863    0.7032    2.5134 H   0  0  0  0  0  0  0  0  0  0  0  0
   -0.6220   -1.8015    0.9914 H   0  0  0  0  0  0  0  0  0  0  0  0
   -0.1783   -1.3412    2.6585 H   0  0  0  0  0  0  0  0  0  0  0  0
    3.1114   -3.7530    1.4782 H   0  0  0  0  0  0  0  0  0  0  0  0
    5.0704   -2.6879    0.3940 H   0  0  0  0  0  0  0  0  0  0  0  0
    1.8094    1.7940    0.0572 H   0  0  0  0  0  0  0  0  0  0  0  0
    3.7051    2.9235   -1.0220 H   0  0  0  0  0  0  0  0  0  0  0  0
    6.0684   -0.6451   -0.6681 H   0  0  0  0  0  0  0  0  0  0  0  0
    5.8449    2.6944   -1.7285 H   0  0  0  0  0  0  0  0  0  0  0  0
  1  2  1  0
  2  3  1  0
  3  4  1  0
  4  5  1  0
  5  6  1  0
  4  7  1  0
  7  8  1  0
  8  9  1  0
  9 10  1  0
 10 11  2  0
 11 12  1  0
 12 13  2  0
 13 14  1  0
 14 15  2  0
 15 16  1  0
 16 17  2  0
 17 18  1  0
 18 19  2  0
 18 20  1  0
  6  1  1  0
 15 10  1  0
 19 14  1  0
  1 21  1  0
  1 22  1  0
  2 23  1  0
  2 24  1  0
  3 25  1  0
  3 26  1  0
  5 27  1  0
  5 28  1  0
  6 29  1  0
  6 30  1  0
  7 31  1  0
  7 32  1  0
  8 33  1  0
  8 34  1  0
 12 35  1  0
 13 36  1  0
 16 37  1  0
 17 38  1  0
 19 39  1  0
 20 40  1  0
M  END
$$$$
