
     RDKit          3D

 44 46  0  0  0  0  0  0  0  0999 V2000
   -4.1041   -0.1796   -2.3267 C   0  0  0  0  0  0  0  0  0  0  0  0
   -3.8980   -0.2231   -0.8399 C   0  0  0  0  0  0  0  0  0  0  0  0
   -3.2729    0.8611   -0.2060 C   0  0  0  0  0  0  0  0  0  0  0  0
   -3.0285    0.8659    1.1771 C   0  0  0  0  0  0  0  0  0  0  0  0
   -3.4489   -0.2228    1.9709 C   0  0  0  0  0  0  0  0  0  0  0  0
   -4.1157   -1.2928    1.3428 C   0  0  0  0  0  0  0  0  0  0  0  0
   -4.3166   -1.3023   -0.0497 C   0  0  0  0  0  0  0  0  0  0  0  0
   -4.9424   -2.3873   -0.6079 O   0  0  0  0  0  0  0  0  0  0  0  0
   -4.6701   -2.6290    2.3082 Cl  0  0  0  0  0  0  0  0  0  0  0  0
   -3.3820   -0.1282    3.3832 N   0  0  0  0  0  0  0  0  0  0  0  0
   -2.4091    1.9878    1.7755 N   0  0  0  0  0  0  0  0  0  0  0  0
   -1.1531    2.0653    1.8419 N   0  0  0  0  0  0  0  0  0  0  0  0
   -0.3406    1.1073    1.2051 C   0  0  0  0  0  0  0  0  0  0  0  0
    0.1418    1.3511   -0.0882 C   0  0  0  0  0  0  0  0  0  0  0  0
    0.9710    0.4266   -0.7264 C   0  0  0  0  0  0  0  0  0  0  0  0
    1.3459   -0.7380   -0.0510 C   0  0  0  0  0  0  0  0  0  0  0  0
    0.8853   -0.9921    1.2440 C   0  0  0  0  0  0  0  0  0  0  0  0
    0.0576   -0.0587    1.8728 C   0  0  0  0  0  0  0  0  0  0  0  0
    2.3892   -1.9353   -0.8584 S   0  0  0  0  0  6  0  0  0  0  0  0
    1.9757   -3.2423   -0.3926 O   0  0  0  0  0  0  0  0  0  0  0  0
    2.4101   -1.6236   -2.2727 O   0  0  0  0  0  0  0  0  0  0  0  0
    3.9104   -1.6455   -0.2036 N   0  0  0  0  0  0  0  0  0  0  0  0
    4.3953   -0.3292   -0.2985 C   0  0  0  0  0  0  0  0  0  0  0  0
    4.7463    0.2641   -1.4983 C   0  0  0  0  0  0  0  0  0  0  0  0
    5.1754    1.5866   -1.4659 C   0  0  0  0  0  0  0  0  0  0  0  0
    5.2350    2.2523   -0.2456 C   0  0  0  0  0  0  0  0  0  0  0  0
    4.8648    1.5620    0.8987 C   0  0  0  0  0  0  0  0  0  0  0  0
    4.4437    0.2780    0.8993 N   0  0  0  0  0  0  0  0  0  0  0  0
   -3.5999   -1.0260   -2.8039 H   0  0  0  0  0  0  0  0  0  0  0  0
   -3.6939    0.7361   -2.7657 H   0  0  0  0  0  0  0  0  0  0  0  0
   -5.1728   -0.2100   -2.5623 H   0  0  0  0  0  0  0  0  0  0  0  0
   -2.9599    1.7270   -0.7869 H   0  0  0  0  0  0  0  0  0  0  0  0
   -5.0243   -2.2804   -1.5671 H   0  0  0  0  0  0  0  0  0  0  0  0
   -3.3983   -1.0313    3.8502 H   0  0  0  0  0  0  0  0  0  0  0  0
   -2.6631    0.5124    3.7099 H   0  0  0  0  0  0  0  0  0  0  0  0
   -0.1399    2.2681   -0.6001 H   0  0  0  0  0  0  0  0  0  0  0  0
    1.3225    0.6255   -1.7363 H   0  0  0  0  0  0  0  0  0  0  0  0
    1.1648   -1.9037    1.7673 H   0  0  0  0  0  0  0  0  0  0  0  0
   -0.2890   -0.2440    2.8861 H   0  0  0  0  0  0  0  0  0  0  0  0
    3.9708   -1.9858    0.7536 H   0  0  0  0  0  0  0  0  0  0  0  0
    4.6935   -0.2823   -2.4335 H   0  0  0  0  0  0  0  0  0  0  0  0
    5.4620    2.0920   -2.3841 H   0  0  0  0  0  0  0  0  0  0  0  0
    5.5653    3.2838   -0.1864 H   0  0  0  0  0  0  0  0  0  0  0  0
    4.8970    2.0403    1.8739 H   0  0  0  0  0  0  0  0  0  0  0  0
  1  2  1  0
  2  3  2  0
  3  4  1  0
  4  5  2  0
  5  6  1  0
  6  7  2  0
  7  8  1  0
  6  9  1  0
  5 10  1  0
  4 11  1  0
 11 12  2  3
 12 13  1  0
 13 14  2  0
 14 15  1  0
 15 16  2  0
 16 17  1  0
 17 18  2  0
 16 19  1  0
 19 20  2  0
 19 21  2  0
 19 22  1  0
 22 23  1  0
 23 24  2  0
 24 25  1  0
 25 26  2  0
 26 27  1  0
 27 28  2  0
  7  2  1  0
 18 13  1  0
 28 23  1  0
  1 29  1  0
  1 30  1  0
  1 31  1  0
  3 32  1  0
  8 33  1  0
 10 34  1  0
 10 35  1  0
 14 36  1  0
 15 37  1  0
 17 38  1  0
 18 39  1  0
 22 40  1  0
 24 41  1  0
 25 42  1  0
 26 43  1  0
 27 44  1  0
M  END
$$$$
