
     RDKit          3D

 48 49  0  0  0  0  0  0  0  0999 V2000
    5.8421   -0.2840    4.5754 C   0  0  0  0  0  0  0  0  0  0  0  0
    5.2394    0.3056    3.4221 O   0  0  0  0  0  0  0  0  0  0  0  0
    4.8378   -0.5997    2.4821 C   0  0  0  0  0  0  0  0  0  0  0  0
    4.9704   -1.8113    2.5802 O   0  0  0  0  0  0  0  0  0  0  0  0
    4.1913    0.1288    1.3332 C   0  0  0  0  0  0  0  0  0  0  0  0
    3.9494   -0.8073    0.1468 C   0  0  2  0  0  0  0  0  0  0  0  0
    5.2221   -1.1306   -0.5333 C   0  0  0  0  0  0  0  0  0  0  0  0
    6.2534   -1.4010   -1.0869 C   0  0  0  0  0  0  0  0  0  0  0  0
    3.0711   -0.1935   -0.8432 N   0  0  0  0  0  0  0  0  0  0  0  0
    1.7200   -0.0654   -0.6070 C   0  0  0  0  0  0  0  0  0  0  0  0
    1.1889   -0.3555    0.4583 O   0  0  0  0  0  0  0  0  0  0  0  0
    0.8964    0.4311   -1.7408 C   0  0  0  0  0  0  0  0  0  0  0  0
   -0.4370    0.0115   -1.8242 C   0  0  0  0  0  0  0  0  0  0  0  0
   -1.2504    0.4816   -2.8582 C   0  0  0  0  0  0  0  0  0  0  0  0
   -0.7241    1.3419   -3.8246 C   0  0  0  0  0  0  0  0  0  0  0  0
    0.6018    1.7682   -3.7386 C   0  0  0  0  0  0  0  0  0  0  0  0
    1.4119    1.3206   -2.6934 C   0  0  0  0  0  0  0  0  0  0  0  0
   -2.5635    0.1025   -3.0317 O   0  0  0  0  0  0  0  0  0  0  0  0
   -3.3138   -0.0985   -1.8931 C   0  0  0  0  0  0  0  0  0  0  0  0
   -3.5341    0.9359   -0.9941 C   0  0  0  0  0  0  0  0  0  0  0  0
   -4.3207    0.6879    0.1325 C   0  0  0  0  0  0  0  0  0  0  0  0
   -4.8833   -0.5839    0.2834 C   0  0  0  0  0  0  0  0  0  0  0  0
   -4.6456   -1.5656   -0.6837 C   0  0  0  0  0  0  0  0  0  0  0  0
   -3.8601   -1.3255   -1.7713 N   0  0  0  0  0  0  0  0  0  0  0  0
   -5.2528   -2.9505   -0.4989 C   0  0  0  0  0  0  0  0  0  0  0  0
   -6.4658   -2.9107    0.1314 F   0  0  0  0  0  0  0  0  0  0  0  0
   -4.4744   -3.7675    0.2671 F   0  0  0  0  0  0  0  0  0  0  0  0
   -5.4732   -3.6223   -1.6648 F   0  0  0  0  0  0  0  0  0  0  0  0
   -4.5883    1.7756    1.1372 C   0  0  0  0  0  0  0  0  0  0  0  0
   -5.7537    2.5637    0.7640 N   0  0  0  0  0  0  0  0  0  0  0  0
    6.7693   -0.7953    4.3007 H   0  0  0  0  0  0  0  0  0  0  0  0
    5.1477   -0.9751    5.0638 H   0  0  0  0  0  0  0  0  0  0  0  0
    6.0826    0.5171    5.2788 H   0  0  0  0  0  0  0  0  0  0  0  0
    4.8361    0.9650    1.0347 H   0  0  0  0  0  0  0  0  0  0  0  0
    3.2497    0.5447    1.7081 H   0  0  0  0  0  0  0  0  0  0  0  0
    3.4664   -1.7349    0.4797 H   0  0  0  0  0  0  0  0  0  0  0  0
    7.1693   -1.6547   -1.5698 H   0  0  0  0  0  0  0  0  0  0  0  0
    3.3935   -0.1848   -1.8019 H   0  0  0  0  0  0  0  0  0  0  0  0
   -0.8227   -0.6906   -1.0879 H   0  0  0  0  0  0  0  0  0  0  0  0
   -1.3518    1.6868   -4.6433 H   0  0  0  0  0  0  0  0  0  0  0  0
    0.9999    2.4537   -4.4835 H   0  0  0  0  0  0  0  0  0  0  0  0
    2.4318    1.6883   -2.6240 H   0  0  0  0  0  0  0  0  0  0  0  0
   -3.0949    1.9131   -1.1643 H   0  0  0  0  0  0  0  0  0  0  0  0
   -5.5065   -0.8092    1.1467 H   0  0  0  0  0  0  0  0  0  0  0  0
   -4.7421    1.3406    2.1310 H   0  0  0  0  0  0  0  0  0  0  0  0
   -3.7132    2.4304    1.2231 H   0  0  0  0  0  0  0  0  0  0  0  0
   -5.6062    2.9703   -0.1582 H   0  0  0  0  0  0  0  0  0  0  0  0
   -6.5639    1.9526    0.6736 H   0  0  0  0  0  0  0  0  0  0  0  0
  1  2  1  0
  2  3  1  0
  3  4  2  0
  3  5  1  0
  5  6  1  0
  6  7  1  0
  7  8  3  0
  6  9  1  0
  9 10  1  0
 10 11  2  0
 10 12  1  0
 12 13  2  0
 13 14  1  0
 14 15  2  0
 15 16  1  0
 16 17  2  0
 14 18  1  0
 18 19  1  0
 19 20  2  0
 20 21  1  0
 21 22  2  0
 22 23  1  0
 23 24  2  0
 23 25  1  0
 25 26  1  0
 25 27  1  0
 25 28  1  0
 21 29  1  0
 29 30  1  0
 17 12  1  0
 24 19  1  0
  1 31  1  0
  1 32  1  0
  1 33  1  0
  5 34  1  0
  5 35  1  0
  6 36  1  1
  8 37  1  0
  9 38  1  0
 13 39  1  0
 15 40  1  0
 16 41  1  0
 17 42  1  0
 20 43  1  0
 22 44  1  0
 29 45  1  0
 29 46  1  0
 30 47  1  0
 30 48  1  0
M  END
$$$$
