
     RDKit          3D

 53 57  0  0  0  0  0  0  0  0999 V2000
    3.1721    0.8780   -1.0741 C   0  0  0  0  0  0  0  0  0  0  0  0
    2.7076   -0.0764    0.0512 C   0  0  2  0  0  0  0  0  0  0  0  0
    3.4190    0.3136    1.3758 C   0  0  0  0  0  0  0  0  0  0  0  0
    4.9178    0.0355    1.3659 C   0  0  0  0  0  0  0  0  0  0  0  0
    5.2190   -1.3794    0.9435 C   0  0  0  0  0  0  0  0  0  0  0  0
    6.2703   -1.9389    1.2485 O   0  0  0  0  0  0  0  0  0  0  0  0
    4.2410   -2.0956    0.0941 C   0  0  0  0  0  0  0  0  0  0  0  0
    3.1025   -1.5149   -0.3217 C   0  0  0  0  0  0  0  0  0  0  0  0
    2.1777   -2.2804   -1.1436 C   0  0  0  0  0  0  0  0  0  0  0  0
    0.9535   -1.8461   -1.4738 C   0  0  0  0  0  0  0  0  0  0  0  0
    0.3886   -0.5291   -1.0103 C   0  0  2  0  0  0  0  0  0  0  0  0
    1.1516   -0.0209    0.2540 C   0  0  2  0  0  0  0  0  0  0  0  0
    0.5923    1.3387    0.7382 C   0  0  0  0  0  0  0  0  0  0  0  0
   -0.9324    1.2905    0.9634 C   0  0  0  0  0  0  0  0  0  0  0  0
   -1.6875    0.7874   -0.2804 C   0  0  1  0  0  0  0  0  0  0  0  0
   -1.1088   -0.5941   -0.6704 C   0  0  1  0  0  0  0  0  0  0  0  0
   -2.0777   -1.0929   -1.7399 C   0  0  0  0  0  0  0  0  0  0  0  0
   -3.4495   -0.5445   -1.3087 C   0  0  0  0  0  0  0  0  0  0  0  0
   -3.1919    0.4215   -0.1146 C   0  0  1  0  0  0  0  0  0  0  0  0
   -3.6146   -0.2008    1.2118 C   0  0  0  0  0  0  0  0  0  0  0  0
   -5.1051    0.0602    1.2379 C   0  0  0  0  0  0  0  0  0  0  0  0
   -5.1980    1.3503    0.4822 C   0  0  0  0  0  0  0  0  0  0  0  0
   -6.1612    2.0981    0.4708 O   0  0  0  0  0  0  0  0  0  0  0  0
   -4.0470    1.5652   -0.2215 O   0  0  0  0  0  0  0  0  0  0  0  0
   -1.5496    1.8639   -1.3985 C   0  0  0  0  0  0  0  0  0  0  0  0
    2.9770    1.9239   -0.8154 H   0  0  0  0  0  0  0  0  0  0  0  0
    4.2475    0.7879   -1.2650 H   0  0  0  0  0  0  0  0  0  0  0  0
    2.6759    0.6737   -2.0278 H   0  0  0  0  0  0  0  0  0  0  0  0
    2.9697   -0.2453    2.2086 H   0  0  0  0  0  0  0  0  0  0  0  0
    3.2714    1.3772    1.5973 H   0  0  0  0  0  0  0  0  0  0  0  0
    5.3128    0.1841    2.3772 H   0  0  0  0  0  0  0  0  0  0  0  0
    5.4470    0.7178    0.6934 H   0  0  0  0  0  0  0  0  0  0  0  0
    4.5165   -3.1123   -0.1643 H   0  0  0  0  0  0  0  0  0  0  0  0
    2.5045   -3.2513   -1.5132 H   0  0  0  0  0  0  0  0  0  0  0  0
    0.3465   -2.4623   -2.1325 H   0  0  0  0  0  0  0  0  0  0  0  0
    0.5269    0.1689   -1.8429 H   0  0  0  0  0  0  0  0  0  0  0  0
    0.9252   -0.7317    1.0673 H   0  0  0  0  0  0  0  0  0  0  0  0
    1.0548    1.6191    1.6907 H   0  0  0  0  0  0  0  0  0  0  0  0
    0.8419    2.1335    0.0288 H   0  0  0  0  0  0  0  0  0  0  0  0
   -1.2951    2.2814    1.2610 H   0  0  0  0  0  0  0  0  0  0  0  0
   -1.1046    0.6242    1.8160 H   0  0  0  0  0  0  0  0  0  0  0  0
   -1.2148   -1.2775    0.1876 H   0  0  0  0  0  0  0  0  0  0  0  0
   -1.8117   -0.7140   -2.7331 H   0  0  0  0  0  0  0  0  0  0  0  0
   -2.0927   -2.1862   -1.7982 H   0  0  0  0  0  0  0  0  0  0  0  0
   -3.9304   -0.0285   -2.1482 H   0  0  0  0  0  0  0  0  0  0  0  0
   -4.1113   -1.3728   -1.0319 H   0  0  0  0  0  0  0  0  0  0  0  0
   -3.3674   -1.2614    1.3130 H   0  0  0  0  0  0  0  0  0  0  0  0
   -3.1777    0.3316    2.0631 H   0  0  0  0  0  0  0  0  0  0  0  0
   -5.4730    0.1759    2.2600 H   0  0  0  0  0  0  0  0  0  0  0  0
   -5.6710   -0.7117    0.7096 H   0  0  0  0  0  0  0  0  0  0  0  0
   -1.9515    2.8250   -1.0563 H   0  0  0  0  0  0  0  0  0  0  0  0
   -2.0926    1.5964   -2.3103 H   0  0  0  0  0  0  0  0  0  0  0  0
   -0.5134    2.0456   -1.6937 H   0  0  0  0  0  0  0  0  0  0  0  0
  2  1  1  6
  2  3  1  0
  3  4  1  0
  4  5  1  0
  5  6  2  0
  5  7  1  0
  7  8  2  0
  8  9  1  0
  9 10  2  0
 10 11  1  0
 11 12  1  0
 12 13  1  0
 13 14  1  0
 14 15  1  0
 15 16  1  0
 16 17  1  0
 17 18  1  0
 18 19  1  0
 19 20  1  0
 20 21  1  0
 21 22  1  0
 22 23  2  0
 22 24  1  0
 15 25  1  6
  8  2  1  0
 12  2  1  0
 16 11  1  0
 19 15  1  0
 19 24  1  6
  1 26  1  0
  1 27  1  0
  1 28  1  0
  3 29  1  0
  3 30  1  0
  4 31  1  0
  4 32  1  0
  7 33  1  0
  9 34  1  0
 10 35  1  0
 11 36  1  6
 12 37  1  1
 13 38  1  0
 13 39  1  0
 14 40  1  0
 14 41  1  0
 16 42  1  1
 17 43  1  0
 17 44  1  0
 18 45  1  0
 18 46  1  0
 20 47  1  0
 20 48  1  0
 21 49  1  0
 21 50  1  0
 25 51  1  0
 25 52  1  0
 25 53  1  0
M  END
$$$$
