
     RDKit          3D

 68 71  0  0  0  0  0  0  0  0999 V2000
   -8.6206   -1.2556    1.6634 C   0  0  0  0  0  0  0  0  0  0  0  0
   -7.3637   -0.5329    1.4793 N   0  0  0  0  0  0  0  0  0  0  0  0
   -7.4807    0.8508    1.9521 C   0  0  0  0  0  0  0  0  0  0  0  0
   -6.1034    1.5153    1.8835 C   0  0  0  0  0  0  0  0  0  0  0  0
   -5.4735    1.4029    0.5714 N   0  0  0  0  0  0  0  0  0  0  0  0
   -5.7600    0.3374   -0.2769 C   0  0  0  0  0  0  0  0  0  0  0  0
   -5.1100    0.1328   -1.3046 O   0  0  0  0  0  0  0  0  0  0  0  0
   -6.9870   -0.5292    0.0460 C   0  0  0  0  0  0  0  0  0  0  0  0
   -4.3571    2.2866    0.2344 C   0  0  0  0  0  0  0  0  0  0  0  0
   -3.0018    1.6370    0.3762 C   0  0  0  0  0  0  0  0  0  0  0  0
   -2.1186    1.4360   -0.6834 C   0  0  0  0  0  0  0  0  0  0  0  0
   -0.9265    0.7927   -0.5436 N   0  0  0  0  0  0  0  0  0  0  0  0
   -0.5576    0.2977    0.6484 C   0  0  0  0  0  0  0  0  0  0  0  0
   -1.3587    0.4879    1.7744 C   0  0  0  0  0  0  0  0  0  0  0  0
   -2.5762    1.1703    1.6271 C   0  0  0  0  0  0  0  0  0  0  0  0
   -0.9478    0.0131    3.1382 C   0  0  0  0  0  0  0  0  0  0  0  0
    0.0689   -1.1083    3.0396 C   0  0  0  0  0  0  0  0  0  0  0  0
    1.1864   -0.6979    2.0957 C   0  0  0  0  0  0  0  0  0  0  0  0
    0.7005   -0.3702    0.7551 N   0  0  0  0  0  0  0  0  0  0  0  0
    1.4160   -0.7291   -0.4082 C   0  0  0  0  0  0  0  0  0  0  0  0
    0.9045   -0.8530   -1.5176 O   0  0  0  0  0  0  0  0  0  0  0  0
    2.7677   -0.9166   -0.1639 N   0  0  0  0  0  0  0  0  0  0  0  0
    3.6701   -1.5102   -1.0570 C   0  0  0  0  0  0  0  0  0  0  0  0
    3.2308   -2.2975   -2.0499 N   0  0  0  0  0  0  0  0  0  0  0  0
    4.1535   -2.8636   -2.8552 C   0  0  0  0  0  0  0  0  0  0  0  0
    5.5222   -2.6847   -2.7129 C   0  0  0  0  0  0  0  0  0  0  0  0
    5.9962   -1.8519   -1.6840 C   0  0  0  0  0  0  0  0  0  0  0  0
    5.0304   -1.3019   -0.8276 C   0  0  0  0  0  0  0  0  0  0  0  0
    7.3721   -1.6979   -1.4569 N   0  0  0  0  0  0  0  0  0  0  0  0
    7.9276   -0.5996   -0.6515 C   0  0  0  0  0  0  0  0  0  0  0  0
    7.8342    0.7640   -1.3547 C   0  0  0  0  0  0  0  0  0  0  0  0
    6.5470    1.3476   -1.1348 O   0  0  0  0  0  0  0  0  0  0  0  0
    6.3694    2.5322   -1.9021 C   0  0  0  0  0  0  0  0  0  0  0  0
    6.3959   -3.3480   -3.6294 C   0  0  0  0  0  0  0  0  0  0  0  0
    7.1212   -3.8650   -4.3744 N   0  0  0  0  0  0  0  0  0  0  0  0
   -2.3416    1.9893   -2.0592 C   0  0  0  0  0  0  0  0  0  0  0  0
   -2.9434    3.0382   -2.2574 O   0  0  0  0  0  0  0  0  0  0  0  0
   -1.6160    1.1031   -3.4000 S   0  0  0  0  0  0  0  0  0  0  0  0
   -9.4545   -0.7852    1.1293 H   0  0  0  0  0  0  0  0  0  0  0  0
   -8.8793   -1.3073    2.7274 H   0  0  0  0  0  0  0  0  0  0  0  0
   -8.5249   -2.2892    1.3129 H   0  0  0  0  0  0  0  0  0  0  0  0
   -7.8249    0.8749    2.9931 H   0  0  0  0  0  0  0  0  0  0  0  0
   -8.2042    1.4155    1.3489 H   0  0  0  0  0  0  0  0  0  0  0  0
   -6.2037    2.5774    2.1337 H   0  0  0  0  0  0  0  0  0  0  0  0
   -5.4347    1.0516    2.6167 H   0  0  0  0  0  0  0  0  0  0  0  0
   -7.8103   -0.1610   -0.5795 H   0  0  0  0  0  0  0  0  0  0  0  0
   -6.7454   -1.5546   -0.2585 H   0  0  0  0  0  0  0  0  0  0  0  0
   -4.3983    3.1806    0.8681 H   0  0  0  0  0  0  0  0  0  0  0  0
   -4.5589    2.6271   -0.7810 H   0  0  0  0  0  0  0  0  0  0  0  0
   -3.2035    1.3223    2.5019 H   0  0  0  0  0  0  0  0  0  0  0  0
   -1.8198   -0.3464    3.6965 H   0  0  0  0  0  0  0  0  0  0  0  0
   -0.5229    0.8601    3.6909 H   0  0  0  0  0  0  0  0  0  0  0  0
    0.4726   -1.3392    4.0322 H   0  0  0  0  0  0  0  0  0  0  0  0
   -0.4146   -2.0198    2.6636 H   0  0  0  0  0  0  0  0  0  0  0  0
    1.7199    0.1824    2.4758 H   0  0  0  0  0  0  0  0  0  0  0  0
    1.9064   -1.5218    2.0431 H   0  0  0  0  0  0  0  0  0  0  0  0
    3.1644   -0.3310    0.5512 H   0  0  0  0  0  0  0  0  0  0  0  0
    3.7374   -3.4888   -3.6426 H   0  0  0  0  0  0  0  0  0  0  0  0
    5.3305   -0.6871    0.0122 H   0  0  0  0  0  0  0  0  0  0  0  0
    7.9476   -1.8968   -2.2752 H   0  0  0  0  0  0  0  0  0  0  0  0
    8.9888   -0.8327   -0.5063 H   0  0  0  0  0  0  0  0  0  0  0  0
    7.4747   -0.5726    0.3448 H   0  0  0  0  0  0  0  0  0  0  0  0
    8.0247    0.6562   -2.4298 H   0  0  0  0  0  0  0  0  0  0  0  0
    8.5863    1.4379   -0.9286 H   0  0  0  0  0  0  0  0  0  0  0  0
    5.3764    2.9358   -1.6872 H   0  0  0  0  0  0  0  0  0  0  0  0
    7.1194    3.2806   -1.6293 H   0  0  0  0  0  0  0  0  0  0  0  0
    6.4299    2.3086   -2.9718 H   0  0  0  0  0  0  0  0  0  0  0  0
   -0.8490    0.3007   -2.6336 H   0  0  0  0  0  0  0  0  0  0  0  0
  1  2  1  0
  2  3  1  0
  3  4  1  0
  4  5  1  0
  5  6  1  0
  6  7  2  0
  6  8  1  0
  5  9  1  0
  9 10  1  0
 10 11  2  0
 11 12  1  0
 12 13  2  0
 13 14  1  0
 14 15  2  0
 14 16  1  0
 16 17  1  0
 17 18  1  0
 18 19  1  0
 19 20  1  0
 20 21  2  0
 20 22  1  0
 22 23  1  0
 23 24  2  0
 24 25  1  0
 25 26  2  0
 26 27  1  0
 27 28  2  0
 27 29  1  0
 29 30  1  0
 30 31  1  0
 31 32  1  0
 32 33  1  0
 26 34  1  0
 34 35  3  0
 11 36  1  0
 36 37  2  0
 36 38  1  0
  8  2  1  0
 15 10  1  0
 19 13  1  0
 28 23  1  0
  1 39  1  0
  1 40  1  0
  1 41  1  0
  3 42  1  0
  3 43  1  0
  4 44  1  0
  4 45  1  0
  8 46  1  0
  8 47  1  0
  9 48  1  0
  9 49  1  0
 15 50  1  0
 16 51  1  0
 16 52  1  0
 17 53  1  0
 17 54  1  0
 18 55  1  0
 18 56  1  0
 22 57  1  0
 25 58  1  0
 28 59  1  0
 29 60  1  0
 30 61  1  0
 30 62  1  0
 31 63  1  0
 31 64  1  0
 33 65  1  0
 33 66  1  0
 33 67  1  0
 38 68  1  0
M  END
$$$$
