
     RDKit          3D

 41 42  0  0  0  0  0  0  0  0999 V2000
    2.4024   -1.1814   -1.2887 C   0  0  0  0  0  0  0  0  0  0  0  0
    2.1558   -0.7841    0.1673 C   0  0  0  0  0  0  0  0  0  0  0  0
    1.8785   -2.0185    1.0213 C   0  0  0  0  0  0  0  0  0  0  0  0
    1.1318    0.3814    0.3631 C   0  0  1  0  0  0  0  0  0  0  0  0
    1.6525    1.6899   -0.3353 C   0  0  1  0  0  0  0  0  0  0  0  0
    0.7780    2.9215   -0.0356 C   0  0  0  0  0  0  0  0  0  0  0  0
   -0.6829    2.6757   -0.3227 C   0  0  0  0  0  0  0  0  0  0  0  0
   -1.4154    3.5464   -1.0440 C   0  0  0  0  0  0  0  0  0  0  0  0
   -1.1966    1.4057    0.3124 C   0  0  2  0  0  0  0  0  0  0  0  0
   -0.3472    0.1662   -0.0902 C   0  0  2  0  0  0  0  0  0  0  0  0
   -1.1792   -0.9787    0.5305 C   0  0  1  0  0  0  0  0  0  0  0  0
   -2.6474   -0.4932    0.5070 C   0  0  0  0  0  0  0  0  0  0  0  0
   -2.6155    0.9494    0.0065 C   0  0  0  0  0  0  0  0  0  0  0  0
   -1.1292   -2.3121   -0.2040 C   0  0  0  0  0  0  0  0  0  0  0  0
   -0.7143   -2.4355   -1.3616 O   0  0  0  0  0  0  0  0  0  0  0  0
   -1.6689   -3.5104    0.5414 C   0  0  0  0  0  0  0  0  0  0  0  0
    2.9822    1.9953    0.0985 O   0  0  0  0  0  0  0  0  0  0  0  0
    1.4796   -1.4582   -1.8038 H   0  0  0  0  0  0  0  0  0  0  0  0
    3.0836   -2.0380   -1.3623 H   0  0  0  0  0  0  0  0  0  0  0  0
    2.8674   -0.3662   -1.8551 H   0  0  0  0  0  0  0  0  0  0  0  0
    3.1232   -0.4185    0.5454 H   0  0  0  0  0  0  0  0  0  0  0  0
    1.2871   -2.7764    0.4952 H   0  0  0  0  0  0  0  0  0  0  0  0
    2.8319   -2.5024    1.2892 H   0  0  0  0  0  0  0  0  0  0  0  0
    1.3762   -1.7637    1.9625 H   0  0  0  0  0  0  0  0  0  0  0  0
    1.1338    0.5855    1.4453 H   0  0  0  0  0  0  0  0  0  0  0  0
    1.6811    1.5356   -1.4242 H   0  0  0  0  0  0  0  0  0  0  0  0
    0.8880    3.1935    1.0209 H   0  0  0  0  0  0  0  0  0  0  0  0
    1.1683    3.7835   -0.5888 H   0  0  0  0  0  0  0  0  0  0  0  0
   -0.9767    4.4519   -1.4648 H   0  0  0  0  0  0  0  0  0  0  0  0
   -2.4735    3.4025   -1.2343 H   0  0  0  0  0  0  0  0  0  0  0  0
   -1.1301    1.5577    1.4023 H   0  0  0  0  0  0  0  0  0  0  0  0
   -0.3501    0.0648   -1.1866 H   0  0  0  0  0  0  0  0  0  0  0  0
   -0.8559   -1.1469    1.5694 H   0  0  0  0  0  0  0  0  0  0  0  0
   -3.0709   -0.5362    1.5240 H   0  0  0  0  0  0  0  0  0  0  0  0
   -3.3002   -1.0983   -0.1427 H   0  0  0  0  0  0  0  0  0  0  0  0
   -2.8186    0.9573   -1.0713 H   0  0  0  0  0  0  0  0  0  0  0  0
   -3.3764    1.5709    0.4959 H   0  0  0  0  0  0  0  0  0  0  0  0
   -1.1574   -4.4174    0.2022 H   0  0  0  0  0  0  0  0  0  0  0  0
   -1.4819   -3.4095    1.6174 H   0  0  0  0  0  0  0  0  0  0  0  0
   -2.7426   -3.6140    0.3560 H   0  0  0  0  0  0  0  0  0  0  0  0
    3.4295    2.4247   -0.6579 H   0  0  0  0  0  0  0  0  0  0  0  0
  1  2  1  0
  2  3  1  0
  2  4  1  0
  4  5  1  0
  5  6  1  0
  6  7  1  0
  7  8  2  3
  7  9  1  0
  9 10  1  0
 10 11  1  0
 11 12  1  0
 12 13  1  0
 11 14  1  0
 14 15  2  0
 14 16  1  0
  5 17  1  0
 10  4  1  0
 13  9  1  0
  1 18  1  0
  1 19  1  0
  1 20  1  0
  2 21  1  0
  3 22  1  0
  3 23  1  0
  3 24  1  0
  4 25  1  1
  5 26  1  6
  6 27  1  0
  6 28  1  0
  8 29  1  0
  8 30  1  0
  9 31  1  1
 10 32  1  6
 11 33  1  1
 12 34  1  0
 12 35  1  0
 13 36  1  0
 13 37  1  0
 16 38  1  0
 16 39  1  0
 16 40  1  0
 17 41  1  0
M  END
$$$$
