
     RDKit          3D

 85 90  0  0  0  0  0  0  0  0999 V2000
    1.8535   -0.3534   -1.2906 C   0  0  0  0  0  0  0  0  0  0  0  0
    1.0411    0.0828   -0.0391 C   0  0  2  0  0  0  0  0  0  0  0  0
    0.4018   -1.1757    0.5752 C   0  0  0  0  0  0  0  0  0  0  0  0
   -0.6311   -1.8036   -0.3731 C   0  0  0  0  0  0  0  0  0  0  0  0
   -1.7047   -0.8398   -0.9030 C   0  0  1  0  0  0  0  0  0  0  0  0
   -2.7629   -1.5670   -1.7157 C   0  0  0  0  0  0  0  0  0  0  0  0
   -3.1755   -0.8808   -0.4318 C   0  0  1  0  0  0  0  0  0  0  0  0
   -3.4960   -1.7330    0.7819 C   0  0  0  0  0  0  0  0  0  0  0  0
   -4.9748   -2.0493    0.8878 C   0  0  0  0  0  0  0  0  0  0  0  0
   -5.7985   -0.7707    0.8927 C   0  0  1  0  0  0  0  0  0  0  0  0
   -5.5730    0.0982   -0.3829 C   0  0  0  0  0  0  0  0  0  0  0  0
   -4.0213    0.4108   -0.5202 C   0  0  2  0  0  0  0  0  0  0  0  0
   -3.6421    1.2497   -1.7637 C   0  0  2  0  0  0  0  0  0  0  0  0
   -2.1484    1.5310   -1.9255 C   0  0  0  0  0  0  0  0  0  0  0  0
   -1.1274    0.4905   -1.4246 C   0  0  1  0  0  0  0  0  0  0  0  0
   -0.1477    1.0878   -0.3513 C   0  0  2  0  0  0  0  0  0  0  0  0
    0.6422    2.3307   -0.7779 C   0  0  0  0  0  0  0  0  0  0  0  0
    1.8443    2.3797    0.1890 C   0  0  1  0  0  0  0  0  0  0  0  0
    1.9625    0.9670    0.8788 C   0  0  2  0  0  0  0  0  0  0  0  0
    3.4149    0.5668    1.3068 C   0  0  1  0  0  0  0  0  0  0  0  0
    3.5133   -0.7494    2.0775 C   0  0  0  0  0  0  0  0  0  0  0  0
    4.9563   -1.1951    1.8856 C   0  0  0  0  0  0  0  0  0  0  0  0
    5.4680   -0.3642    0.7080 C   0  0  2  0  0  0  0  0  0  0  0  0
    4.3012    0.3263    0.1995 O   0  0  0  0  0  0  0  0  0  0  0  0
    6.1822   -1.1467   -0.4195 C   0  0  0  0  0  0  0  0  0  0  0  0
    7.4272   -1.8691    0.0994 C   0  0  0  0  0  0  0  0  0  0  0  0
    6.5691   -0.2100   -1.5698 C   0  0  0  0  0  0  0  0  0  0  0  0
    5.2998   -2.1376   -0.9557 O   0  0  0  0  0  0  0  0  0  0  0  0
    3.9941    1.7054    2.1920 C   0  0  0  0  0  0  0  0  0  0  0  0
    2.9925    2.7709   -0.5431 O   0  0  0  0  0  0  0  0  0  0  0  0
   -0.9860    1.4971    0.9085 C   0  0  0  0  0  0  0  0  0  0  0  0
   -4.2875    2.5271   -1.7556 O   0  0  0  0  0  0  0  0  0  0  0  0
   -6.1361   -0.6136   -1.6344 C   0  0  0  0  0  0  0  0  0  0  0  0
   -6.4022    1.3939   -0.1923 C   0  0  0  0  0  0  0  0  0  0  0  0
   -7.1735   -1.1187    1.0416 O   0  0  0  0  0  0  0  0  0  0  0  0
    1.2386   -0.7360   -2.1068 H   0  0  0  0  0  0  0  0  0  0  0  0
    2.5318   -1.1671   -1.0222 H   0  0  0  0  0  0  0  0  0  0  0  0
    2.4595    0.4531   -1.7098 H   0  0  0  0  0  0  0  0  0  0  0  0
   -0.0620   -0.9540    1.5416 H   0  0  0  0  0  0  0  0  0  0  0  0
    1.1529   -1.9440    0.7762 H   0  0  0  0  0  0  0  0  0  0  0  0
   -0.1105   -2.2247   -1.2411 H   0  0  0  0  0  0  0  0  0  0  0  0
   -1.0643   -2.6733    0.1260 H   0  0  0  0  0  0  0  0  0  0  0  0
   -3.0345   -1.1715   -2.6871 H   0  0  0  0  0  0  0  0  0  0  0  0
   -2.7602   -2.6544   -1.7312 H   0  0  0  0  0  0  0  0  0  0  0  0
   -2.9717   -2.6933    0.7636 H   0  0  0  0  0  0  0  0  0  0  0  0
   -3.1610   -1.2063    1.6857 H   0  0  0  0  0  0  0  0  0  0  0  0
   -5.1627   -2.6147    1.8088 H   0  0  0  0  0  0  0  0  0  0  0  0
   -5.2927   -2.7080    0.0727 H   0  0  0  0  0  0  0  0  0  0  0  0
   -5.5253   -0.1810    1.7758 H   0  0  0  0  0  0  0  0  0  0  0  0
   -3.7622    1.0133    0.3621 H   0  0  0  0  0  0  0  0  0  0  0  0
   -3.9885    0.7503   -2.6738 H   0  0  0  0  0  0  0  0  0  0  0  0
   -1.9180    2.5263   -1.5268 H   0  0  0  0  0  0  0  0  0  0  0  0
   -1.9720    1.6711   -3.0048 H   0  0  0  0  0  0  0  0  0  0  0  0
   -0.5398    0.2378   -2.3156 H   0  0  0  0  0  0  0  0  0  0  0  0
    0.0604    3.2563   -0.7005 H   0  0  0  0  0  0  0  0  0  0  0  0
    0.9707    2.2580   -1.8225 H   0  0  0  0  0  0  0  0  0  0  0  0
    1.6794    3.1375    0.9641 H   0  0  0  0  0  0  0  0  0  0  0  0
    1.4289    1.0389    1.8362 H   0  0  0  0  0  0  0  0  0  0  0  0
    2.8870   -1.5200    1.6305 H   0  0  0  0  0  0  0  0  0  0  0  0
    3.2312   -0.6632    3.1322 H   0  0  0  0  0  0  0  0  0  0  0  0
    5.5585   -0.9940    2.7787 H   0  0  0  0  0  0  0  0  0  0  0  0
    5.0033   -2.2747    1.7110 H   0  0  0  0  0  0  0  0  0  0  0  0
    6.1606    0.4029    1.0779 H   0  0  0  0  0  0  0  0  0  0  0  0
    8.1411   -1.1703    0.5467 H   0  0  0  0  0  0  0  0  0  0  0  0
    7.1700   -2.6264    0.8469 H   0  0  0  0  0  0  0  0  0  0  0  0
    7.9336   -2.4068   -0.7105 H   0  0  0  0  0  0  0  0  0  0  0  0
    7.2598    0.5705   -1.2347 H   0  0  0  0  0  0  0  0  0  0  0  0
    7.0467   -0.7679   -2.3841 H   0  0  0  0  0  0  0  0  0  0  0  0
    5.6876    0.2688   -2.0099 H   0  0  0  0  0  0  0  0  0  0  0  0
    4.4800   -1.6553   -1.1695 H   0  0  0  0  0  0  0  0  0  0  0  0
    3.2762    2.0143    2.9619 H   0  0  0  0  0  0  0  0  0  0  0  0
    4.2687    2.5800    1.5929 H   0  0  0  0  0  0  0  0  0  0  0  0
    4.9123    1.4094    2.7126 H   0  0  0  0  0  0  0  0  0  0  0  0
    2.8109    3.6334   -0.9518 H   0  0  0  0  0  0  0  0  0  0  0  0
   -1.5170    0.6541    1.3530 H   0  0  0  0  0  0  0  0  0  0  0  0
   -0.3901    1.9502    1.7037 H   0  0  0  0  0  0  0  0  0  0  0  0
   -1.7372    2.2517    0.6539 H   0  0  0  0  0  0  0  0  0  0  0  0
   -4.0406    2.9815   -0.9317 H   0  0  0  0  0  0  0  0  0  0  0  0
   -5.6017   -1.5412   -1.8605 H   0  0  0  0  0  0  0  0  0  0  0  0
   -7.1948   -0.8681   -1.5067 H   0  0  0  0  0  0  0  0  0  0  0  0
   -6.0756    0.0241   -2.5230 H   0  0  0  0  0  0  0  0  0  0  0  0
   -5.9710    2.0286    0.5886 H   0  0  0  0  0  0  0  0  0  0  0  0
   -7.4364    1.1732    0.0993 H   0  0  0  0  0  0  0  0  0  0  0  0
   -6.4775    1.9774   -1.1150 H   0  0  0  0  0  0  0  0  0  0  0  0
   -7.2578   -1.6847    1.8264 H   0  0  0  0  0  0  0  0  0  0  0  0
  2  1  1  6
  2  3  1  0
  3  4  1  0
  5  4  1  1
  5  6  1  0
  7  6  1  6
  7  8  1  0
  8  9  1  0
  9 10  1  0
 10 11  1  0
 11 12  1  0
 12 13  1  0
 13 14  1  0
 14 15  1  0
 15 16  1  0
 16 17  1  0
 17 18  1  0
 18 19  1  0
 19 20  1  0
 20 21  1  0
 21 22  1  0
 22 23  1  0
 23 24  1  0
 23 25  1  0
 25 26  1  0
 25 27  1  0
 25 28  1  0
 20 29  1  1
 18 30  1  0
 16 31  1  1
 13 32  1  0
 11 33  1  0
 11 34  1  0
 10 35  1  0
 16  2  1  0
 19  2  1  0
  7  5  1  0
 15  5  1  0
 12  7  1  0
 24 20  1  0
  1 36  1  0
  1 37  1  0
  1 38  1  0
  3 39  1  0
  3 40  1  0
  4 41  1  0
  4 42  1  0
  6 43  1  0
  6 44  1  0
  8 45  1  0
  8 46  1  0
  9 47  1  0
  9 48  1  0
 10 49  1  1
 12 50  1  1
 13 51  1  6
 14 52  1  0
 14 53  1  0
 15 54  1  6
 17 55  1  0
 17 56  1  0
 18 57  1  1
 19 58  1  1
 21 59  1  0
 21 60  1  0
 22 61  1  0
 22 62  1  0
 23 63  1  1
 26 64  1  0
 26 65  1  0
 26 66  1  0
 27 67  1  0
 27 68  1  0
 27 69  1  0
 28 70  1  0
 29 71  1  0
 29 72  1  0
 29 73  1  0
 30 74  1  0
 31 75  1  0
 31 76  1  0
 31 77  1  0
 32 78  1  0
 33 79  1  0
 33 80  1  0
 33 81  1  0
 34 82  1  0
 34 83  1  0
 34 84  1  0
 35 85  1  0
M  END
$$$$
