
     RDKit          3D

 16 15  0  0  0  0  0  0  0  0999 V2000
   -2.2770   -0.0332    0.5016 C   0  0  0  0  0  0  0  0  0  0  0  0
   -1.1949   -0.8490   -0.1860 C   0  0  0  0  0  0  0  0  0  0  0  0
    0.1585   -0.5804    0.3905 C   0  0  0  0  0  3  0  0  0  0  0  0
    0.9436    0.6089   -0.0641 C   0  0  0  0  0  0  0  0  0  0  0  0
    2.4247    0.4567    0.2450 C   0  0  0  0  0  0  0  0  0  0  0  0
   -2.1073    1.0411    0.3727 H   0  0  0  0  0  0  0  0  0  0  0  0
   -3.2574   -0.2725    0.0773 H   0  0  0  0  0  0  0  0  0  0  0  0
   -2.3121   -0.2463    1.5753 H   0  0  0  0  0  0  0  0  0  0  0  0
   -1.4185   -1.9158   -0.0725 H   0  0  0  0  0  0  0  0  0  0  0  0
   -1.1950   -0.6389   -1.2612 H   0  0  0  0  0  0  0  0  0  0  0  0
    0.4407   -1.0910    1.3064 H   0  0  0  0  0  0  0  0  0  0  0  0
    0.5595    1.5058    0.4335 H   0  0  0  0  0  0  0  0  0  0  0  0
    0.8184    0.7477   -1.1436 H   0  0  0  0  0  0  0  0  0  0  0  0
    2.8439   -0.4251   -0.2514 H   0  0  0  0  0  0  0  0  0  0  0  0
    2.5971    0.3561    1.3220 H   0  0  0  0  0  0  0  0  0  0  0  0
    2.9759    1.3357   -0.1040 H   0  0  0  0  0  0  0  0  0  0  0  0
  1  2  1  0
  2  3  1  0
  3  4  1  0
  4  5  1  0
  1  6  1  0
  1  7  1  0
  1  8  1  0
  2  9  1  0
  2 10  1  0
  3 11  1  0
  4 12  1  0
  4 13  1  0
  5 14  1  0
  5 15  1  0
  5 16  1  0
M  RAD  1   3   2
M  END
$$$$
