
     RDKit          3D

 27 29  0  0  0  0  0  0  0  0999 V2000
   -4.6482    0.3923   -0.4109 C   0  0  0  0  0  0  0  0  0  0  0  0
   -4.2223   -0.9211   -0.2446 C   0  0  0  0  0  0  0  0  0  0  0  0
   -2.8585   -1.2108   -0.1187 C   0  0  0  0  0  0  0  0  0  0  0  0
   -1.8877   -0.1905   -0.1575 C   0  0  0  0  0  0  0  0  0  0  0  0
   -2.3520    1.1304   -0.3269 C   0  0  0  0  0  0  0  0  0  0  0  0
   -3.7136    1.4196   -0.4531 C   0  0  0  0  0  0  0  0  0  0  0  0
   -0.4384   -0.4322   -0.0303 C   0  0  0  0  0  0  0  0  0  0  0  0
    0.3641    0.7451   -0.0971 O   0  0  0  0  0  3  0  0  0  0  0  0
    1.7669    0.5886    0.0179 C   0  0  0  0  0  0  0  0  0  0  0  0
    2.5476    1.7416   -0.0483 C   0  0  0  0  0  0  0  0  0  0  0  0
    3.9356    1.6578    0.0583 C   0  0  0  0  0  0  0  0  0  0  0  0
    4.5400    0.4127    0.2302 C   0  0  0  0  0  0  0  0  0  0  0  0
    3.7636   -0.7486    0.2964 C   0  0  0  0  0  0  0  0  0  0  0  0
    2.3646   -0.6720    0.1907 C   0  0  0  0  0  0  0  0  0  0  0  0
    1.5551   -1.8021    0.2519 C   0  0  0  0  0  0  0  0  0  0  0  0
    0.1735   -1.6773    0.1417 C   0  0  0  0  0  0  0  0  0  0  0  0
   -5.7091    0.6148   -0.5087 H   0  0  0  0  0  0  0  0  0  0  0  0
   -4.9577   -1.7234   -0.2124 H   0  0  0  0  0  0  0  0  0  0  0  0
   -2.5938   -2.2579    0.0088 H   0  0  0  0  0  0  0  0  0  0  0  0
   -1.6464    1.9616   -0.3646 H   0  0  0  0  0  0  0  0  0  0  0  0
   -4.0447    2.4481   -0.5831 H   0  0  0  0  0  0  0  0  0  0  0  0
    2.0579    2.7010   -0.1820 H   0  0  0  0  0  0  0  0  0  0  0  0
    4.5464    2.5585    0.0069 H   0  0  0  0  0  0  0  0  0  0  0  0
    5.6257    0.3454    0.3130 H   0  0  0  0  0  0  0  0  0  0  0  0
    4.2661   -1.7068    0.4318 H   0  0  0  0  0  0  0  0  0  0  0  0
    1.9917   -2.7927    0.3855 H   0  0  0  0  0  0  0  0  0  0  0  0
   -0.4265   -2.5821    0.1944 H   0  0  0  0  0  0  0  0  0  0  0  0
  1  2  2  0
  2  3  1  0
  3  4  2  0
  4  5  1  0
  5  6  2  0
  4  7  1  0
  7  8  2  0
  8  9  1  0
  9 10  2  0
 10 11  1  0
 11 12  2  0
 12 13  1  0
 13 14  2  0
 14 15  1  0
 15 16  2  0
  6  1  1  0
 16  7  1  0
 14  9  1  0
  1 17  1  0
  2 18  1  0
  3 19  1  0
  5 20  1  0
  6 21  1  0
 10 22  1  0
 11 23  1  0
 12 24  1  0
 13 25  1  0
 15 26  1  0
 16 27  1  0
M  CHG  1   8   1
M  END
$$$$
