
     RDKit          3D

125132  0  0  0  0  0  0  0  0999 V2000
  -15.5980    1.7177   -2.4624 C   0  0  0  0  0  0  0  0  0  0  0  0
  -16.6061    1.3599   -1.3734 C   0  0  0  0  0  0  0  0  0  0  0  0
  -16.3359    2.0897   -0.0649 C   0  0  0  0  0  0  0  0  0  0  0  0
  -15.1090    1.2801    0.9738 S   0  0  0  0  0  6  0  0  0  0  0  0
  -15.7714    0.8950    2.2071 O   0  0  0  0  0  0  0  0  0  0  0  0
  -14.3274    0.3370    0.2034 O   0  0  0  0  0  0  0  0  0  0  0  0
  -14.1378    2.6035    1.4190 N   0  0  0  0  0  0  0  0  0  0  0  0
  -12.8835    2.7328    0.7398 C   0  0  0  0  0  0  0  0  0  0  0  0
  -11.8094    1.8688    1.0067 C   0  0  0  0  0  0  0  0  0  0  0  0
  -10.5913    2.0263    0.3433 C   0  0  0  0  0  0  0  0  0  0  0  0
  -10.4680    3.0628   -0.5873 C   0  0  0  0  0  0  0  0  0  0  0  0
  -11.5334    3.9244   -0.8548 C   0  0  0  0  0  0  0  0  0  0  0  0
  -12.7492    3.7592   -0.1930 C   0  0  0  0  0  0  0  0  0  0  0  0
   -9.3543    3.2285   -1.3096 F   0  0  0  0  0  0  0  0  0  0  0  0
   -9.5230    1.1193    0.5722 N   0  0  0  0  0  0  0  0  0  0  0  0
   -9.6812   -0.2468    0.7555 C   0  0  0  0  0  0  0  0  0  0  0  0
   -8.4398   -0.8602    0.7357 C   0  0  0  0  0  0  0  0  0  0  0  0
   -7.4840    0.1906    0.6499 C   0  0  0  0  0  0  0  0  0  0  0  0
   -8.1619    1.4033    0.6010 C   0  0  0  0  0  0  0  0  0  0  0  0
   -7.4296    2.5925    0.6271 C   0  0  0  0  0  0  0  0  0  0  0  0
   -6.0368    2.4716    0.6295 C   0  0  0  0  0  0  0  0  0  0  0  0
   -5.4116    1.2225    0.5969 C   0  0  0  0  0  0  0  0  0  0  0  0
   -6.1372    0.0947    0.6205 N   0  0  0  0  0  0  0  0  0  0  0  0
   -4.0228    1.0932    0.5632 N   0  0  0  0  0  0  0  0  0  0  0  0
   -3.1700    2.2534    0.7706 C   0  0  0  0  0  0  0  0  0  0  0  0
   -3.4718   -0.1186   -0.0790 C   0  0  0  0  0  0  0  0  0  0  0  0
   -2.5119   -0.8753    0.8565 C   0  0  0  0  0  0  0  0  0  0  0  0
   -1.0440   -0.7750    0.4577 C   0  0  0  0  0  0  0  0  0  0  0  0
   -0.7875   -1.0191   -0.9659 N   0  0  0  0  0  0  0  0  0  0  0  0
   -1.9286   -0.9216   -1.8742 C   0  0  0  0  0  0  0  0  0  0  0  0
   -2.8628    0.2014   -1.4492 C   0  0  0  0  0  0  0  0  0  0  0  0
    0.4660   -1.2692   -1.5096 C   0  0  0  0  0  0  0  0  0  0  0  0
    0.6296   -1.4997   -2.7106 O   0  0  0  0  0  0  0  0  0  0  0  0
    1.6665   -1.3006   -0.5822 C   0  0  0  0  0  0  0  0  0  0  0  0
    2.0946   -2.7458   -0.3504 C   0  0  0  0  0  0  0  0  0  0  0  0
    3.4672   -2.9627   -0.6931 O   0  0  0  0  0  0  0  0  0  0  0  0
    3.6802   -3.0484   -2.1100 C   0  0  0  0  0  0  0  0  0  0  0  0
    5.1227   -3.4797   -2.3896 C   0  0  0  0  0  0  0  0  0  0  0  0
    6.0671   -2.4015   -2.3690 O   0  0  0  0  0  0  0  0  0  0  0  0
    6.3005   -1.7996   -1.0959 C   0  0  0  0  0  0  0  0  0  0  0  0
    6.9864   -2.7371   -0.0973 C   0  0  0  0  0  0  0  0  0  0  0  0
    7.4733   -2.0289    1.0449 O   0  0  0  0  0  0  0  0  0  0  0  0
    8.7964   -1.5082    0.8852 C   0  0  0  0  0  0  0  0  0  0  0  0
    9.8561   -2.5755    1.2003 C   0  0  0  0  0  0  0  0  0  0  0  0
   11.2155   -2.0334    1.1699 N   0  0  0  0  0  0  0  0  0  0  0  0
   11.7129   -1.2889    2.2375 C   0  0  0  0  0  0  0  0  0  0  0  0
   11.4035   -1.5551    3.5826 C   0  0  0  0  0  0  0  0  0  0  0  0
   12.0053   -0.8399    4.6449 C   0  0  0  0  0  0  0  0  0  0  0  0
   12.9477    0.1573    4.3985 C   0  0  0  0  0  0  0  0  0  0  0  0
   13.2619    0.3981    3.0763 C   0  0  0  0  0  0  0  0  0  0  0  0
   12.6721   -0.3025    2.0379 C   0  0  0  0  0  0  0  0  0  0  0  0
   13.2349    0.2256    0.7948 C   0  0  0  0  0  0  0  0  0  0  0  0
   12.8594   -0.1007   -0.3176 O   0  0  0  0  0  0  0  0  0  0  0  0
   14.1791    1.1505    1.1445 N   0  0  0  0  0  0  0  0  0  0  0  0
   14.2112    1.3430    2.4955 C   0  0  0  0  0  0  0  0  0  0  0  0
   14.8899    2.1194    3.1420 O   0  0  0  0  0  0  0  0  0  0  0  0
   14.8996    1.9971    0.2040 C   0  0  0  0  0  0  0  0  0  0  0  0
   15.5693    1.2314   -0.9331 C   0  0  0  0  0  0  0  0  0  0  0  0
   16.2827    2.2058   -1.8552 C   0  0  0  0  0  0  0  0  0  0  0  0
   15.3176    3.2383   -2.3892 C   0  0  0  0  0  0  0  0  0  0  0  0
   15.4011    3.6957   -3.5236 O   0  0  0  0  0  0  0  0  0  0  0  0
   14.3443    3.6712   -1.5217 N   0  0  0  0  0  0  0  0  0  0  0  0
   13.9462    3.0616   -0.3521 C   0  0  0  0  0  0  0  0  0  0  0  0
   12.9065    3.4142    0.2043 O   0  0  0  0  0  0  0  0  0  0  0  0
   -8.2293   -2.3021    0.7846 C   0  0  0  0  0  0  0  0  0  0  0  0
   -9.2149   -3.2318    0.4912 C   0  0  0  0  0  0  0  0  0  0  0  0
   -9.0249   -4.5746    0.4936 N   0  0  0  0  0  0  0  0  0  0  0  0
   -7.7873   -4.9865    0.7950 C   0  0  0  0  0  0  0  0  0  0  0  0
   -6.7485   -4.1985    1.1064 N   0  0  0  0  0  0  0  0  0  0  0  0
   -7.0043   -2.8677    1.0926 C   0  0  0  0  0  0  0  0  0  0  0  0
  -11.9597    0.9410    1.9646 F   0  0  0  0  0  0  0  0  0  0  0  0
  -15.5431    2.8014   -2.6097 H   0  0  0  0  0  0  0  0  0  0  0  0
  -14.6003    1.3481   -2.2231 H   0  0  0  0  0  0  0  0  0  0  0  0
  -15.8987    1.2695   -3.4112 H   0  0  0  0  0  0  0  0  0  0  0  0
  -17.6066    1.6413   -1.7360 H   0  0  0  0  0  0  0  0  0  0  0  0
  -16.6202    0.2733   -1.2230 H   0  0  0  0  0  0  0  0  0  0  0  0
  -17.2533    2.1200    0.5358 H   0  0  0  0  0  0  0  0  0  0  0  0
  -16.0288    3.1263   -0.2430 H   0  0  0  0  0  0  0  0  0  0  0  0
  -14.0555    2.5971    2.4442 H   0  0  0  0  0  0  0  0  0  0  0  0
  -11.4085    4.7147   -1.5894 H   0  0  0  0  0  0  0  0  0  0  0  0
  -13.5776    4.4355   -0.4003 H   0  0  0  0  0  0  0  0  0  0  0  0
  -10.6774   -0.6719    0.8065 H   0  0  0  0  0  0  0  0  0  0  0  0
   -7.9006    3.5683    0.6346 H   0  0  0  0  0  0  0  0  0  0  0  0
   -5.4608    3.3898    0.6245 H   0  0  0  0  0  0  0  0  0  0  0  0
   -3.2066    2.9364   -0.0866 H   0  0  0  0  0  0  0  0  0  0  0  0
   -3.4549    2.8015    1.6763 H   0  0  0  0  0  0  0  0  0  0  0  0
   -2.1247    1.9601    0.9119 H   0  0  0  0  0  0  0  0  0  0  0  0
   -4.2735   -0.8414   -0.2855 H   0  0  0  0  0  0  0  0  0  0  0  0
   -2.7844   -1.9413    0.8198 H   0  0  0  0  0  0  0  0  0  0  0  0
   -2.6447   -0.5718    1.9032 H   0  0  0  0  0  0  0  0  0  0  0  0
   -0.6547    0.2233    0.6901 H   0  0  0  0  0  0  0  0  0  0  0  0
   -0.4682   -1.4975    1.0478 H   0  0  0  0  0  0  0  0  0  0  0  0
   -2.4426   -1.8876   -1.8582 H   0  0  0  0  0  0  0  0  0  0  0  0
   -1.5919   -0.7491   -2.9016 H   0  0  0  0  0  0  0  0  0  0  0  0
   -3.6635    0.3281   -2.1882 H   0  0  0  0  0  0  0  0  0  0  0  0
   -2.2972    1.1401   -1.4371 H   0  0  0  0  0  0  0  0  0  0  0  0
    2.4597   -0.6998   -1.0446 H   0  0  0  0  0  0  0  0  0  0  0  0
    1.4563   -0.8128    0.3732 H   0  0  0  0  0  0  0  0  0  0  0  0
    2.0131   -2.9704    0.7185 H   0  0  0  0  0  0  0  0  0  0  0  0
    1.4685   -3.4751   -0.8722 H   0  0  0  0  0  0  0  0  0  0  0  0
    3.4807   -2.0758   -2.5746 H   0  0  0  0  0  0  0  0  0  0  0  0
    2.9991   -3.8035   -2.5227 H   0  0  0  0  0  0  0  0  0  0  0  0
    5.4436   -4.2755   -1.7100 H   0  0  0  0  0  0  0  0  0  0  0  0
    5.1695   -3.8825   -3.4071 H   0  0  0  0  0  0  0  0  0  0  0  0
    6.9383   -0.9297   -1.2794 H   0  0  0  0  0  0  0  0  0  0  0  0
    5.3771   -1.3887   -0.6754 H   0  0  0  0  0  0  0  0  0  0  0  0
    7.7815   -3.3171   -0.5793 H   0  0  0  0  0  0  0  0  0  0  0  0
    6.2575   -3.4647    0.2718 H   0  0  0  0  0  0  0  0  0  0  0  0
    8.9431   -1.0946   -0.1186 H   0  0  0  0  0  0  0  0  0  0  0  0
    8.8920   -0.6749    1.5893 H   0  0  0  0  0  0  0  0  0  0  0  0
    9.8028   -3.3685    0.4458 H   0  0  0  0  0  0  0  0  0  0  0  0
    9.6242   -3.0779    2.1441 H   0  0  0  0  0  0  0  0  0  0  0  0
   11.4389   -1.5997    0.2651 H   0  0  0  0  0  0  0  0  0  0  0  0
   10.7071   -2.3490    3.8443 H   0  0  0  0  0  0  0  0  0  0  0  0
   11.7358   -1.0873    5.6729 H   0  0  0  0  0  0  0  0  0  0  0  0
   13.4249    0.7098    5.2023 H   0  0  0  0  0  0  0  0  0  0  0  0
   15.6666    2.5502    0.7649 H   0  0  0  0  0  0  0  0  0  0  0  0
   16.2830    0.5049   -0.5278 H   0  0  0  0  0  0  0  0  0  0  0  0
   14.8361    0.6694   -1.5219 H   0  0  0  0  0  0  0  0  0  0  0  0
   16.7112    1.6576   -2.7009 H   0  0  0  0  0  0  0  0  0  0  0  0
   17.0951    2.7258   -1.3338 H   0  0  0  0  0  0  0  0  0  0  0  0
   13.6895    4.3413   -1.9041 H   0  0  0  0  0  0  0  0  0  0  0  0
  -10.2256   -2.9356    0.2371 H   0  0  0  0  0  0  0  0  0  0  0  0
   -7.6088   -6.0550    0.7915 H   0  0  0  0  0  0  0  0  0  0  0  0
   -6.1415   -2.2582    1.3531 H   0  0  0  0  0  0  0  0  0  0  0  0
  1  2  1  0
  2  3  1  0
  3  4  1  0
  4  5  2  0
  4  6  2  0
  4  7  1  0
  7  8  1  0
  8  9  2  0
  9 10  1  0
 10 11  2  0
 11 12  1  0
 12 13  2  0
 11 14  1  0
 10 15  1  0
 15 16  1  0
 16 17  2  0
 17 18  1  0
 18 19  2  0
 19 20  1  0
 20 21  2  0
 21 22  1  0
 22 23  2  0
 22 24  1  0
 24 25  1  0
 24 26  1  0
 26 27  1  0
 27 28  1  0
 28 29  1  0
 29 30  1  0
 30 31  1  0
 29 32  1  0
 32 33  2  0
 32 34  1  0
 34 35  1  0
 35 36  1  0
 36 37  1  0
 37 38  1  0
 38 39  1  0
 39 40  1  0
 40 41  1  0
 41 42  1  0
 42 43  1  0
 43 44  1  0
 44 45  1  0
 45 46  1  0
 46 47  2  0
 47 48  1  0
 48 49  2  0
 49 50  1  0
 50 51  2  0
 51 52  1  0
 52 53  2  0
 52 54  1  0
 54 55  1  0
 55 56  2  0
 54 57  1  0
 57 58  1  0
 58 59  1  0
 59 60  1  0
 60 61  2  0
 60 62  1  0
 62 63  1  0
 63 64  2  0
 17 65  1  0
 65 66  2  0
 66 67  1  0
 67 68  2  0
 68 69  1  0
 69 70  2  0
  9 71  1  0
 13  8  1  0
 19 15  1  0
 23 18  1  0
 31 26  1  0
 51 46  1  0
 55 50  1  0
 63 57  1  0
 70 65  1  0
  1 72  1  0
  1 73  1  0
  1 74  1  0
  2 75  1  0
  2 76  1  0
  3 77  1  0
  3 78  1  0
  7 79  1  0
 12 80  1  0
 13 81  1  0
 16 82  1  0
 20 83  1  0
 21 84  1  0
 25 85  1  0
 25 86  1  0
 25 87  1  0
 26 88  1  0
 27 89  1  0
 27 90  1  0
 28 91  1  0
 28 92  1  0
 30 93  1  0
 30 94  1  0
 31 95  1  0
 31 96  1  0
 34 97  1  0
 34 98  1  0
 35 99  1  0
 35100  1  0
 37101  1  0
 37102  1  0
 38103  1  0
 38104  1  0
 40105  1  0
 40106  1  0
 41107  1  0
 41108  1  0
 43109  1  0
 43110  1  0
 44111  1  0
 44112  1  0
 45113  1  0
 47114  1  0
 48115  1  0
 49116  1  0
 57117  1  0
 58118  1  0
 58119  1  0
 59120  1  0
 59121  1  0
 62122  1  0
 66123  1  0
 68124  1  0
 70125  1  0
M  END
$$$$
