
     RDKit          3D

 54 54  0  0  0  0  0  0  0  0999 V2000
   -3.0367   -0.3384   -0.0664 C   0  0  0  0  0  0  0  0  0  0  0  0
   -1.6954   -0.9166    0.3254 C   0  0  0  0  0  0  0  0  0  0  0  0
   -0.8927    0.3537    0.5577 C   0  0  0  0  0  0  0  0  0  0  0  0
   -1.3507    1.2997   -0.4254 O   0  0  0  0  0  0  0  0  0  0  0  0
   -2.6491    0.8867   -0.8681 C   0  0  0  0  0  0  0  0  0  0  0  0
    0.5409    0.1766    0.4168 N   0  0  0  0  0  0  0  0  0  0  0  0
    1.1082    0.0535   -0.9274 C   0  0  0  0  0  0  0  0  0  0  0  0
    2.4277   -0.6916   -0.9105 C   0  0  0  0  0  0  0  0  0  0  0  0
    3.3226   -0.0406    0.1192 C   0  0  0  0  0  0  0  0  0  0  0  0
    4.5375    0.0979   -0.0427 O   0  0  0  0  0  0  0  0  0  0  0  0
    2.7042    0.3670    1.2712 N   0  0  0  0  0  0  0  0  0  0  0  0
    1.3555    0.4356    1.5025 C   0  0  0  0  0  0  0  0  0  0  0  0
    0.9470    0.7209    2.6264 O   0  0  0  0  0  0  0  0  0  0  0  0
    2.1925   -2.0039   -0.6107 F   0  0  0  0  0  0  0  0  0  0  0  0
   -1.0497   -0.8739   -0.1297 C   0  0  0  0  0  0  0  0  0  0  0  0
    0.3553   -1.3031    0.1821 C   0  0  0  0  0  0  0  0  0  0  0  0
    0.6077   -2.4679    0.5094 O   0  0  0  0  0  0  0  0  0  0  0  0
    1.4351   -0.2893    0.0457 C   0  0  0  0  0  0  0  0  0  0  0  0
    1.0906    0.9968   -0.0541 C   0  0  0  0  0  0  0  0  0  0  0  0
   -0.2079    1.4271   -0.0318 N   0  0  0  0  0  0  0  0  0  0  0  0
   -1.3068    0.5999    0.0260 C   0  0  0  0  0  0  0  0  0  0  0  0
   -2.4403    1.0675    0.1521 O   0  0  0  0  0  0  0  0  0  0  0  0
    3.0790   -0.8007    0.0689 Cl  0  0  0  0  0  0  0  0  0  0  0  0
   -0.8365   -0.4226    0.4916 C   0  0  0  0  0  0  0  0  0  0  0  0
   -0.4557    0.9223    0.8871 N   0  0  0  0  0  0  0  0  0  0  0  0
    0.6197    1.4857    0.2653 C   0  0  0  0  0  0  0  0  0  0  0  0
    0.8121    2.6970    0.2739 O   0  0  0  0  0  0  0  0  0  0  0  0
    1.4987    0.6124   -0.3133 N   0  0  0  0  0  0  0  0  0  0  0  0
    1.4622   -0.7379   -0.1488 C   0  0  0  0  0  0  0  0  0  0  0  0
    2.4017   -1.4539   -0.4838 O   0  0  0  0  0  0  0  0  0  0  0  0
    0.3608   -1.2334    0.4730 N   0  0  0  0  0  0  0  0  0  0  0  0
   -1.7086   -0.4610   -0.8361 C   0  0  0  0  0  0  0  0  0  0  0  0
   -1.2919   -1.2358   -1.7522 O   0  0  0  0  0  0  0  0  0  0  0  0
   -2.7295    0.2910   -0.8151 O   0  0  0  0  0  1  0  0  0  0  0  0
    0.0000    0.0000    0.0000 K   0  0  0  0  0 15  0  0  0  0  0  0
   -3.6627   -1.0304   -0.6331 H   0  0  0  0  0  0  0  0  0  0  0  0
   -3.5950   -0.0373    0.8299 H   0  0  0  0  0  0  0  0  0  0  0  0
   -1.2995   -1.5118   -0.5006 H   0  0  0  0  0  0  0  0  0  0  0  0
   -1.7449   -1.5555    1.2129 H   0  0  0  0  0  0  0  0  0  0  0  0
   -1.1406    0.7689    1.5444 H   0  0  0  0  0  0  0  0  0  0  0  0
   -2.5740    0.6584   -1.9382 H   0  0  0  0  0  0  0  0  0  0  0  0
   -3.3584    1.7098   -0.7309 H   0  0  0  0  0  0  0  0  0  0  0  0
    0.4036   -0.4972   -1.5603 H   0  0  0  0  0  0  0  0  0  0  0  0
    1.2449    1.0663   -1.3272 H   0  0  0  0  0  0  0  0  0  0  0  0
    2.9119   -0.6444   -1.8907 H   0  0  0  0  0  0  0  0  0  0  0  0
    3.3033    0.6726    2.0256 H   0  0  0  0  0  0  0  0  0  0  0  0
   -1.2622   -1.1446   -1.1707 H   0  0  0  0  0  0  0  0  0  0  0  0
   -1.7385   -1.4147    0.5403 H   0  0  0  0  0  0  0  0  0  0  0  0
    1.8529    1.7779   -0.1294 H   0  0  0  0  0  0  0  0  0  0  0  0
   -0.4152    2.4250   -0.0089 H   0  0  0  0  0  0  0  0  0  0  0  0
   -1.4733   -0.8136    1.2976 H   0  0  0  0  0  0  0  0  0  0  0  0
   -1.2166    1.5742    1.0679 H   0  0  0  0  0  0  0  0  0  0  0  0
    2.3279    1.0051   -0.7334 H   0  0  0  0  0  0  0  0  0  0  0  0
    0.2289   -2.2294    0.3265 H   0  0  0  0  0  0  0  0  0  0  0  0
  1  2  1  0
  2  3  1  0
  3  4  1  0
  4  5  1  0
  3  6  1  0
  6  7  1  0
  7  8  1  0
  8  9  1  0
  9 10  2  0
  9 11  1  0
 11 12  1  0
 12 13  2  0
  8 14  1  0
 15 16  1  0
 16 17  2  0
 16 18  1  0
 18 19  2  0
 19 20  1  0
 20 21  1  0
 21 22  2  0
 18 23  1  0
 24 25  1  0
 25 26  1  0
 26 27  2  0
 26 28  1  0
 28 29  1  0
 29 30  2  0
 29 31  1  0
 24 32  1  0
 32 33  2  0
 32 34  1  0
  5  1  1  0
 21 15  1  0
 31 24  1  0
 12  6  1  0
  1 36  1  0
  1 37  1  0
  2 38  1  0
  2 39  1  0
  3 40  1  0
  5 41  1  0
  5 42  1  0
  7 43  1  0
  7 44  1  0
  8 45  1  0
 11 46  1  0
 15 47  1  0
 15 48  1  0
 19 49  1  0
 20 50  1  0
 24 51  1  0
 25 52  1  0
 28 53  1  0
 31 54  1  0
M  CHG  2  34  -1  35   1
M  END
$$$$
