
     RDKit          3D

 50 52  0  0  0  0  0  0  0  0999 V2000
   -4.2522    1.5052   -0.4008 C   0  0  0  0  0  0  0  0  0  0  0  0
   -2.8409    1.1497   -0.8951 C   0  0  2  0  0  0  0  0  0  0  0  0
   -2.7241   -0.3834   -1.0777 C   0  0  0  0  0  0  0  0  0  0  0  0
   -2.3618   -1.1194    0.2142 C   0  0  2  0  0  0  0  0  0  0  0  0
   -0.8937   -1.0764    0.6648 C   0  0  1  0  0  0  0  0  0  0  0  0
   -0.4859   -2.5636    0.7443 C   0  0  1  0  0  0  0  0  0  0  0  0
   -1.7899   -3.2973    0.6253 C   0  0  0  0  0  0  0  0  0  0  0  0
   -1.9658   -4.4764    0.8859 O   0  0  0  0  0  0  0  0  0  0  0  0
   -2.7436   -2.4901    0.1012 O   0  0  0  0  0  0  0  0  0  0  0  0
    0.4319   -3.1138   -0.3425 C   0  0  0  0  0  0  0  0  0  0  0  0
    0.1031   -0.1580   -0.0967 C   0  0  1  0  0  0  0  0  0  0  0  0
   -0.3056    1.3290   -0.3511 C   0  0  1  0  0  0  0  0  0  0  0  0
   -1.7600    1.6746    0.0700 C   0  0  1  0  0  0  0  0  0  0  0  0
   -1.7116    3.1553    0.3443 C   0  0  0  0  0  0  0  0  0  0  0  0
   -0.4817    3.5849    0.6430 C   0  0  0  0  0  0  0  0  0  0  0  0
    0.4135    2.4286    0.4292 C   0  0  0  0  0  0  0  0  0  0  0  0
    1.5851    2.4620    0.7698 O   0  0  0  0  0  0  0  0  0  0  0  0
   -0.0193    1.6811   -1.8396 C   0  0  0  0  0  0  0  0  0  0  0  0
    1.3379   -0.2292    0.6553 O   0  0  0  0  0  0  0  0  0  0  0  0
    2.5066   -0.2004   -0.0522 C   0  0  0  0  0  0  0  0  0  0  0  0
    2.5806   -0.2329   -1.2727 O   0  0  0  0  0  0  0  0  0  0  0  0
    3.6870   -0.1741    0.8991 C   0  0  0  0  0  0  0  0  0  0  0  0
    3.9808   -1.5871    1.3871 C   0  0  0  0  0  0  0  0  0  0  0  0
    4.9076    0.4412    0.2213 C   0  0  0  0  0  0  0  0  0  0  0  0
   -5.0141    1.0817   -1.0642 H   0  0  0  0  0  0  0  0  0  0  0  0
   -4.4074    2.5883   -0.3881 H   0  0  0  0  0  0  0  0  0  0  0  0
   -4.4351    1.1247    0.6093 H   0  0  0  0  0  0  0  0  0  0  0  0
   -2.7321    1.6203   -1.8802 H   0  0  0  0  0  0  0  0  0  0  0  0
   -1.9863   -0.6228   -1.8518 H   0  0  0  0  0  0  0  0  0  0  0  0
   -3.6675   -0.7800   -1.4760 H   0  0  0  0  0  0  0  0  0  0  0  0
   -2.9918   -0.7286    1.0231 H   0  0  0  0  0  0  0  0  0  0  0  0
   -0.8975   -0.7187    1.7065 H   0  0  0  0  0  0  0  0  0  0  0  0
   -0.0602   -2.7704    1.7331 H   0  0  0  0  0  0  0  0  0  0  0  0
    1.4412   -2.7062   -0.2665 H   0  0  0  0  0  0  0  0  0  0  0  0
    0.5246   -4.2029   -0.2558 H   0  0  0  0  0  0  0  0  0  0  0  0
    0.0413   -2.9073   -1.3450 H   0  0  0  0  0  0  0  0  0  0  0  0
    0.2568   -0.6310   -1.0736 H   0  0  0  0  0  0  0  0  0  0  0  0
   -1.9660    1.2579    1.0665 H   0  0  0  0  0  0  0  0  0  0  0  0
   -2.5882    3.7851    0.4258 H   0  0  0  0  0  0  0  0  0  0  0  0
   -0.1488    4.5577    0.9584 H   0  0  0  0  0  0  0  0  0  0  0  0
   -0.3902    2.6763   -2.1114 H   0  0  0  0  0  0  0  0  0  0  0  0
    1.0573    1.6882   -2.0414 H   0  0  0  0  0  0  0  0  0  0  0  0
   -0.4792    0.9659   -2.5281 H   0  0  0  0  0  0  0  0  0  0  0  0
    3.4233    0.4633    1.7520 H   0  0  0  0  0  0  0  0  0  0  0  0
    4.8227   -1.5921    2.0869 H   0  0  0  0  0  0  0  0  0  0  0  0
    4.2253   -2.2532    0.5521 H   0  0  0  0  0  0  0  0  0  0  0  0
    3.1119   -2.0124    1.9011 H   0  0  0  0  0  0  0  0  0  0  0  0
    4.6804    1.4468   -0.1494 H   0  0  0  0  0  0  0  0  0  0  0  0
    5.2376   -0.1594   -0.6335 H   0  0  0  0  0  0  0  0  0  0  0  0
    5.7440    0.5196    0.9237 H   0  0  0  0  0  0  0  0  0  0  0  0
  1  2  1  0
  2  3  1  0
  3  4  1  0
  4  5  1  0
  5  6  1  0
  6  7  1  0
  7  8  2  0
  7  9  1  0
  6 10  1  0
  5 11  1  0
 11 12  1  0
 12 13  1  0
 13 14  1  0
 14 15  2  0
 15 16  1  0
 16 17  2  0
 12 18  1  6
 11 19  1  0
 19 20  1  0
 20 21  2  0
 20 22  1  0
 22 23  1  0
 22 24  1  0
 13  2  1  0
  9  4  1  0
 16 12  1  0
  1 25  1  0
  1 26  1  0
  1 27  1  0
  2 28  1  6
  3 29  1  0
  3 30  1  0
  4 31  1  1
  5 32  1  1
  6 33  1  1
 10 34  1  0
 10 35  1  0
 10 36  1  0
 11 37  1  6
 13 38  1  1
 14 39  1  0
 15 40  1  0
 18 41  1  0
 18 42  1  0
 18 43  1  0
 22 44  1  0
 23 45  1  0
 23 46  1  0
 23 47  1  0
 24 48  1  0
 24 49  1  0
 24 50  1  0
M  END
$$$$
