
     RDKit          3D

 64 66  0  0  0  0  0  0  0  0999 V2000
   -4.5690    2.0835   -0.7907 C   0  0  0  0  0  0  0  0  0  0  0  0
   -4.7345    3.5880   -0.5214 C   0  0  2  0  0  0  0  0  0  0  0  0
   -3.6713    4.1020    0.4579 C   0  0  1  0  0  0  0  0  0  0  0  0
   -2.3736    3.3293    0.2555 C   0  0  2  0  0  0  0  0  0  0  0  0
   -2.6259    1.8399    0.5901 C   0  0  1  0  0  0  0  0  0  0  0  0
   -3.9724    1.4200    0.3309 O   0  0  0  0  0  0  0  0  0  0  0  0
   -1.7180    1.0499   -0.1830 O   0  0  0  0  0  0  0  0  0  0  0  0
   -0.8772    0.1757    0.5916 C   0  0  1  0  0  0  0  0  0  0  0  0
   -1.0875   -1.2624    0.0966 C   0  0  0  0  0  0  0  0  0  0  0  0
   -2.5223   -1.7562    0.3303 C   0  0  0  0  0  0  0  0  0  0  0  0
   -2.6567   -3.2288    0.0227 C   0  0  0  0  0  0  0  0  0  0  0  0
   -2.8722   -3.6674   -1.2914 C   0  0  0  0  0  0  0  0  0  0  0  0
   -2.9486   -5.0289   -1.5548 C   0  0  0  0  0  0  0  0  0  0  0  0
   -2.8558   -5.9581   -0.5244 C   0  0  0  0  0  0  0  0  0  0  0  0
   -2.6251   -5.5475    0.7782 C   0  0  0  0  0  0  0  0  0  0  0  0
   -2.5217   -4.1822    1.0510 C   0  0  0  0  0  0  0  0  0  0  0  0
   -3.0264   -7.2879   -0.7732 O   0  0  0  0  0  0  0  0  0  0  0  0
   -3.0770   -5.4424   -2.8504 O   0  0  0  0  0  0  0  0  0  0  0  0
    0.5588    0.6474    0.3406 C   0  0  0  0  0  0  0  0  0  0  0  0
    1.5855    0.0554    1.2871 C   0  0  0  0  0  0  0  0  0  0  0  0
    1.2706   -0.7154    2.1928 O   0  0  0  0  0  0  0  0  0  0  0  0
    3.0262    0.5015    1.1049 C   0  0  0  0  0  0  0  0  0  0  0  0
    3.5799    0.0913   -0.2574 C   0  0  0  0  0  0  0  0  0  0  0  0
    5.0310    0.4758   -0.4204 C   0  0  0  0  0  0  0  0  0  0  0  0
    6.0454   -0.4383   -0.1049 C   0  0  0  0  0  0  0  0  0  0  0  0
    7.3764   -0.0775   -0.2864 C   0  0  0  0  0  0  0  0  0  0  0  0
    7.7116    1.1992   -0.7322 C   0  0  0  0  0  0  0  0  0  0  0  0
    6.7199    2.1176   -1.0428 C   0  0  0  0  0  0  0  0  0  0  0  0
    5.3797    1.7540   -0.8899 C   0  0  0  0  0  0  0  0  0  0  0  0
    9.0160    1.5717   -0.8482 O   0  0  0  0  0  0  0  0  0  0  0  0
    8.3523   -0.9964   -0.0487 O   0  0  0  0  0  0  0  0  0  0  0  0
   -1.3406    3.8875    1.0898 O   0  0  0  0  0  0  0  0  0  0  0  0
   -3.4581    5.5064    0.2346 O   0  0  0  0  0  0  0  0  0  0  0  0
   -6.0295    3.8648    0.0222 O   0  0  0  0  0  0  0  0  0  0  0  0
   -3.9310    1.9165   -1.6640 H   0  0  0  0  0  0  0  0  0  0  0  0
   -5.5374    1.6111   -0.9815 H   0  0  0  0  0  0  0  0  0  0  0  0
   -4.6924    4.1297   -1.4742 H   0  0  0  0  0  0  0  0  0  0  0  0
   -4.0118    4.0178    1.4980 H   0  0  0  0  0  0  0  0  0  0  0  0
   -2.0302    3.4475   -0.7836 H   0  0  0  0  0  0  0  0  0  0  0  0
   -2.4655    1.6956    1.6660 H   0  0  0  0  0  0  0  0  0  0  0  0
   -1.1066    0.2195    1.6648 H   0  0  0  0  0  0  0  0  0  0  0  0
   -0.3867   -1.9394    0.6009 H   0  0  0  0  0  0  0  0  0  0  0  0
   -0.8692   -1.3209   -0.9794 H   0  0  0  0  0  0  0  0  0  0  0  0
   -2.8244   -1.5697    1.3678 H   0  0  0  0  0  0  0  0  0  0  0  0
   -3.2283   -1.1949   -0.2952 H   0  0  0  0  0  0  0  0  0  0  0  0
   -2.9529   -2.9509   -2.1039 H   0  0  0  0  0  0  0  0  0  0  0  0
   -2.5438   -6.2776    1.5784 H   0  0  0  0  0  0  0  0  0  0  0  0
   -2.3377   -3.8608    2.0748 H   0  0  0  0  0  0  0  0  0  0  0  0
   -3.7271   -7.3393   -1.4537 H   0  0  0  0  0  0  0  0  0  0  0  0
   -2.5311   -6.2495   -2.9149 H   0  0  0  0  0  0  0  0  0  0  0  0
    0.8367    0.4213   -0.6934 H   0  0  0  0  0  0  0  0  0  0  0  0
    0.6105    1.7367    0.4523 H   0  0  0  0  0  0  0  0  0  0  0  0
    3.6246    0.0584    1.9077 H   0  0  0  0  0  0  0  0  0  0  0  0
    3.0632    1.5869    1.2421 H   0  0  0  0  0  0  0  0  0  0  0  0
    3.4587   -0.9895   -0.4063 H   0  0  0  0  0  0  0  0  0  0  0  0
    3.0052    0.5598   -1.0649 H   0  0  0  0  0  0  0  0  0  0  0  0
    5.8031   -1.4315    0.2631 H   0  0  0  0  0  0  0  0  0  0  0  0
    6.9862    3.1108   -1.3924 H   0  0  0  0  0  0  0  0  0  0  0  0
    4.6066    2.4828   -1.1356 H   0  0  0  0  0  0  0  0  0  0  0  0
    9.5164    0.9719   -0.2646 H   0  0  0  0  0  0  0  0  0  0  0  0
    8.8568   -1.0579   -0.8842 H   0  0  0  0  0  0  0  0  0  0  0  0
   -0.5478    3.9848    0.5211 H   0  0  0  0  0  0  0  0  0  0  0  0
   -2.6974    5.7403    0.7993 H   0  0  0  0  0  0  0  0  0  0  0  0
   -6.0365    4.8194    0.2373 H   0  0  0  0  0  0  0  0  0  0  0  0
  1  2  1  0
  2  3  1  0
  3  4  1  0
  4  5  1  0
  5  6  1  0
  5  7  1  0
  7  8  1  0
  8  9  1  0
  9 10  1  0
 10 11  1  0
 11 12  2  0
 12 13  1  0
 13 14  2  0
 14 15  1  0
 15 16  2  0
 14 17  1  0
 13 18  1  0
  8 19  1  0
 19 20  1  0
 20 21  2  0
 20 22  1  0
 22 23  1  0
 23 24  1  0
 24 25  2  0
 25 26  1  0
 26 27  2  0
 27 28  1  0
 28 29  2  0
 27 30  1  0
 26 31  1  0
  4 32  1  0
  3 33  1  0
  2 34  1  0
  6  1  1  0
 16 11  1  0
 29 24  1  0
  1 35  1  0
  1 36  1  0
  2 37  1  6
  3 38  1  1
  4 39  1  6
  5 40  1  1
  8 41  1  1
  9 42  1  0
  9 43  1  0
 10 44  1  0
 10 45  1  0
 12 46  1  0
 15 47  1  0
 16 48  1  0
 17 49  1  0
 18 50  1  0
 19 51  1  0
 19 52  1  0
 22 53  1  0
 22 54  1  0
 23 55  1  0
 23 56  1  0
 25 57  1  0
 28 58  1  0
 29 59  1  0
 30 60  1  0
 31 61  1  0
 32 62  1  0
 33 63  1  0
 34 64  1  0
M  END
$$$$
