
     RDKit          3D

  3  1  0  0  0  0  0  0  0  0999 V2000
    0.4889    0.0000    0.0000 O   0  0  0  0  0  1  0  0  0  0  0  0
    0.0000    0.0000    0.0000 K   0  0  0  0  0 15  0  0  0  0  0  0
   -0.4889    0.0000    0.0000 H   0  0  0  0  0  0  0  0  0  0  0  0
  1  3  1  0
M  CHG  2   1  -1   2   1
M  END
$$$$
