
     RDKit          3D

 58 60  0  0  0  0  0  0  0  0999 V2000
   -3.6356   -3.1032    2.0226 C   0  0  0  0  0  0  0  0  0  0  0  0
   -2.8965   -2.8451    1.1043 C   0  0  0  0  0  0  0  0  0  0  0  0
   -1.9510   -2.4981    0.0270 C   0  0  0  0  0  0  0  0  0  0  0  0
   -1.8263   -0.9602   -0.1374 C   0  0  0  0  0  0  0  0  0  0  0  0
   -2.9162   -0.3835   -1.0856 C   0  0  0  0  0  0  0  0  0  0  0  0
   -4.1086    0.1072   -0.3268 C   0  0  0  0  0  0  0  0  0  0  0  0
   -4.0835    1.3613    0.2714 C   0  0  0  0  0  0  0  0  0  0  0  0
   -5.0816    1.8142    1.0697 N   0  0  0  0  0  0  0  0  0  0  0  0
   -6.1134    0.9888    1.3060 C   0  0  0  0  0  0  0  0  0  0  0  0
   -6.1411   -0.2672    0.6852 C   0  0  0  0  0  0  0  0  0  0  0  0
   -5.1651   -0.7219   -0.1617 N   0  0  0  0  0  0  0  0  0  0  0  0
   -7.2348   -1.0390    1.0369 C   0  0  0  0  0  0  0  0  0  0  0  0
   -8.1603   -0.6620    1.9375 N   0  0  0  0  0  0  0  0  0  0  0  0
   -8.0028    0.5477    2.4887 C   0  0  0  0  0  0  0  0  0  0  0  0
   -7.0343    1.4111    2.1555 N   0  0  0  0  0  0  0  0  0  0  0  0
   -8.9097    0.9048    3.4524 N   0  0  0  0  0  0  0  0  0  0  0  0
   -7.4030   -2.3133    0.4399 N   0  0  0  0  0  0  0  0  0  0  0  0
   -0.3906   -0.5618   -0.4919 C   0  0  0  0  0  0  0  0  0  0  0  0
   -0.0108   -0.0333   -1.7324 C   0  0  0  0  0  0  0  0  0  0  0  0
    1.2755    0.4844   -1.9208 C   0  0  0  0  0  0  0  0  0  0  0  0
    2.2113    0.4131   -0.8956 C   0  0  0  0  0  0  0  0  0  0  0  0
    1.8792   -0.1852    0.3209 C   0  0  0  0  0  0  0  0  0  0  0  0
    0.5813   -0.6581    0.5237 C   0  0  0  0  0  0  0  0  0  0  0  0
    3.5325    1.0325   -1.0629 C   0  0  0  0  0  0  0  0  0  0  0  0
    3.6208    2.2078   -1.4054 O   0  0  0  0  0  0  0  0  0  0  0  0
    4.5966    0.2184   -0.7507 N   0  0  0  0  0  0  0  0  0  0  0  0
    5.9843    0.6730   -0.9308 C   0  0  1  0  0  0  0  0  0  0  0  0
    6.7984    0.3138    0.3156 C   0  0  0  0  0  0  0  0  0  0  0  0
    8.1394    1.0391    0.4215 C   0  0  0  0  0  0  0  0  0  0  0  0
    7.9958    2.5360    0.4287 C   0  0  0  0  0  0  0  0  0  0  0  0
    8.4514    3.2920   -0.4098 O   0  0  0  0  0  0  0  0  0  0  0  0
    7.3000    3.0024    1.4782 O   0  0  0  0  0  0  0  0  0  0  0  0
    6.5215   -0.0289   -2.1845 C   0  0  0  0  0  0  0  0  0  0  0  0
    6.0022   -0.9873   -2.7483 O   0  0  0  0  0  0  0  0  0  0  0  0
    7.6680    0.4983   -2.6444 O   0  0  0  0  0  0  0  0  0  0  0  0
   -4.2693   -3.3358    2.8486 H   0  0  0  0  0  0  0  0  0  0  0  0
   -2.2525   -2.9763   -0.9115 H   0  0  0  0  0  0  0  0  0  0  0  0
   -0.9799   -2.9376    0.2919 H   0  0  0  0  0  0  0  0  0  0  0  0
   -1.9863   -0.5038    0.8503 H   0  0  0  0  0  0  0  0  0  0  0  0
   -2.5497    0.4609   -1.6699 H   0  0  0  0  0  0  0  0  0  0  0  0
   -3.2300   -1.1400   -1.8287 H   0  0  0  0  0  0  0  0  0  0  0  0
   -3.2515    2.0463    0.1591 H   0  0  0  0  0  0  0  0  0  0  0  0
   -9.3905    1.7507    3.1228 H   0  0  0  0  0  0  0  0  0  0  0  0
   -9.5614    0.1260    3.5489 H   0  0  0  0  0  0  0  0  0  0  0  0
   -6.5229   -2.8209    0.5695 H   0  0  0  0  0  0  0  0  0  0  0  0
   -7.4546   -2.1669   -0.5717 H   0  0  0  0  0  0  0  0  0  0  0  0
   -0.7013    0.0334   -2.5677 H   0  0  0  0  0  0  0  0  0  0  0  0
    1.5337    0.9520   -2.8680 H   0  0  0  0  0  0  0  0  0  0  0  0
    2.5994   -0.2350    1.1235 H   0  0  0  0  0  0  0  0  0  0  0  0
    0.3207   -1.0716    1.4946 H   0  0  0  0  0  0  0  0  0  0  0  0
    4.4384   -0.7823   -0.8208 H   0  0  0  0  0  0  0  0  0  0  0  0
    5.9811    1.7454   -1.1204 H   0  0  0  0  0  0  0  0  0  0  0  0
    6.2003    0.5526    1.2125 H   0  0  0  0  0  0  0  0  0  0  0  0
    6.9842   -0.7666    0.3501 H   0  0  0  0  0  0  0  0  0  0  0  0
    8.6478    0.7563    1.3474 H   0  0  0  0  0  0  0  0  0  0  0  0
    8.8130    0.7501   -0.3932 H   0  0  0  0  0  0  0  0  0  0  0  0
    7.2573    3.9722    1.3301 H   0  0  0  0  0  0  0  0  0  0  0  0
    7.8809   -0.0073   -3.4583 H   0  0  0  0  0  0  0  0  0  0  0  0
  1  2  3  0
  2  3  1  0
  3  4  1  0
  4  5  1  0
  5  6  1  0
  6  7  2  0
  7  8  1  0
  8  9  2  0
  9 10  1  0
 10 11  2  0
 10 12  1  0
 12 13  2  0
 13 14  1  0
 14 15  2  0
 14 16  1  0
 12 17  1  0
  4 18  1  0
 18 19  2  0
 19 20  1  0
 20 21  2  0
 21 22  1  0
 22 23  2  0
 21 24  1  0
 24 25  2  0
 24 26  1  0
 26 27  1  0
 27 28  1  0
 28 29  1  0
 29 30  1  0
 30 31  2  0
 30 32  1  0
 27 33  1  0
 33 34  2  0
 33 35  1  0
 11  6  1  0
 15  9  1  0
 23 18  1  0
  1 36  1  0
  3 37  1  0
  3 38  1  0
  4 39  1  0
  5 40  1  0
  5 41  1  0
  7 42  1  0
 16 43  1  0
 16 44  1  0
 17 45  1  0
 17 46  1  0
 19 47  1  0
 20 48  1  0
 22 49  1  0
 23 50  1  0
 26 51  1  0
 27 52  1  6
 28 53  1  0
 28 54  1  0
 29 55  1  0
 29 56  1  0
 32 57  1  0
 35 58  1  0
M  END
$$$$
