
     RDKit          3D

111116  0  0  0  0  0  0  0  0999 V2000
    0.6029   -3.0835    3.0056 C   0  0  0  0  0  0  0  0  0  0  0  0
   -0.0049   -1.7040    3.0608 C   0  0  0  0  0  0  0  0  0  0  0  0
   -1.2381   -1.4010    3.5681 C   0  0  0  0  0  0  0  0  0  0  0  0
   -2.2610   -2.4972    3.8057 C   0  0  2  0  0  0  0  0  0  0  0  0
   -2.6271   -3.1431    2.4392 C   0  0  0  0  0  0  0  0  0  0  0  0
   -2.1319   -4.2502    2.1850 O   0  0  0  0  0  0  0  0  0  0  0  0
   -3.4659   -2.3868    1.3494 C   0  0  2  0  0  0  0  0  0  0  0  0
   -3.9412   -3.5427    0.3742 C   0  0  2  0  0  0  0  0  0  0  0  0
   -2.9725   -3.8455   -0.7587 C   0  0  0  0  0  0  0  0  0  0  0  0
   -2.8153   -2.6285   -1.6379 C   0  0  2  0  0  0  0  0  0  0  0  0
   -2.6044   -1.2613   -0.9377 C   0  0  2  0  0  0  0  0  0  0  0  0
   -2.5186   -1.2833    0.6432 C   0  0  1  0  0  0  0  0  0  0  0  0
   -2.5780    0.2091    1.2419 C   0  0  1  0  0  0  0  0  0  0  0  0
   -1.4389    0.6795    2.2682 C   0  0  1  0  0  0  0  0  0  0  0  0
   -1.5868    0.1007    3.7191 C   0  0  0  0  0  0  0  0  0  0  0  0
   -2.9389    0.5235    4.3592 C   0  0  0  0  0  0  0  0  0  0  0  0
   -0.5701    0.7647    4.7228 C   0  0  0  0  0  0  0  0  0  0  0  0
   -0.0040    0.4500    1.7029 C   0  0  0  0  0  0  0  0  0  0  0  0
    0.8512   -0.5996    2.4529 C   0  0  2  0  0  0  0  0  0  0  0  0
    1.7681   -1.1411    1.4746 O   0  0  0  0  0  0  0  0  0  0  0  0
    3.0957   -1.0367    1.7507 C   0  0  0  0  0  0  0  0  0  0  0  0
    3.5756   -0.5816    2.7858 O   0  0  0  0  0  0  0  0  0  0  0  0
    3.9562   -1.6550    0.6468 C   0  0  1  0  0  0  0  0  0  0  0  0
    3.7189   -0.9324   -0.6990 C   0  0  2  0  0  0  0  0  0  0  0  0
    4.1569   -1.7766   -1.8911 C   0  0  0  0  0  0  0  0  0  0  0  0
    3.2205   -2.1470   -2.8670 C   0  0  0  0  0  0  0  0  0  0  0  0
    3.6048   -2.9007   -3.9768 C   0  0  0  0  0  0  0  0  0  0  0  0
    4.9302   -3.3056   -4.1215 C   0  0  0  0  0  0  0  0  0  0  0  0
    5.8694   -2.9558   -3.1559 C   0  0  0  0  0  0  0  0  0  0  0  0
    5.4884   -2.1904   -2.0534 C   0  0  0  0  0  0  0  0  0  0  0  0
    4.4040    0.3493   -0.7316 N   0  0  0  0  0  0  0  0  0  0  0  0
    3.9011    1.4569   -1.3296 C   0  0  0  0  0  0  0  0  0  0  0  0
    2.7547    1.5698   -1.7393 O   0  0  0  0  0  0  0  0  0  0  0  0
    4.8574    2.4051   -1.3706 O   0  0  0  0  0  0  0  0  0  0  0  0
    4.6136    3.6987   -1.9860 C   0  0  0  0  0  0  0  0  0  0  0  0
    3.4925    4.4611   -1.2748 C   0  0  0  0  0  0  0  0  0  0  0  0
    4.3385    3.5399   -3.4887 C   0  0  0  0  0  0  0  0  0  0  0  0
    5.9302    4.4721   -1.8157 C   0  0  0  0  0  0  0  0  0  0  0  0
    5.3483   -1.5823    1.0312 O   0  0  0  0  0  0  0  0  0  0  0  0
   -1.5782    2.1173    2.3977 O   0  0  0  0  0  0  0  0  0  0  0  0
   -2.4969    1.2104    0.1648 O   0  0  0  0  0  0  0  0  0  0  0  0
   -3.6122    1.9369   -0.1066 C   0  0  0  0  0  0  0  0  0  0  0  0
   -4.7175    1.7541    0.3698 O   0  0  0  0  0  0  0  0  0  0  0  0
   -3.2999    2.9960   -1.1005 C   0  0  0  0  0  0  0  0  0  0  0  0
   -1.9883    3.3147   -1.4747 C   0  0  0  0  0  0  0  0  0  0  0  0
   -1.7458    4.3140   -2.4201 C   0  0  0  0  0  0  0  0  0  0  0  0
   -2.8190    5.0012   -2.9904 C   0  0  0  0  0  0  0  0  0  0  0  0
   -4.1248    4.7065   -2.6080 C   0  0  0  0  0  0  0  0  0  0  0  0
   -4.3679    3.7016   -1.6711 C   0  0  0  0  0  0  0  0  0  0  0  0
   -3.9902   -0.9171   -1.5539 C   0  0  0  0  0  0  0  0  0  0  0  0
   -4.0840   -2.2131   -2.2002 O   0  0  0  0  0  0  0  0  0  0  0  0
   -1.4203   -0.5284   -1.4186 O   0  0  0  0  0  0  0  0  0  0  0  0
   -1.2973   -0.2360   -2.7481 C   0  0  0  0  0  0  0  0  0  0  0  0
   -2.0630   -0.5607   -3.6447 O   0  0  0  0  0  0  0  0  0  0  0  0
   -0.0473    0.5465   -2.9878 C   0  0  0  0  0  0  0  0  0  0  0  0
   -5.2605   -3.3013   -0.1285 O   0  0  0  0  0  0  0  0  0  0  0  0
   -4.7579   -1.8326    1.9731 C   0  0  0  0  0  0  0  0  0  0  0  0
   -3.3459   -2.1166    4.6075 O   0  0  0  0  0  0  0  0  0  0  0  0
    1.6127   -3.0627    3.4278 H   0  0  0  0  0  0  0  0  0  0  0  0
    0.6640   -3.4339    1.9741 H   0  0  0  0  0  0  0  0  0  0  0  0
    0.0539   -3.8318    3.5759 H   0  0  0  0  0  0  0  0  0  0  0  0
   -1.7658   -3.2834    4.3887 H   0  0  0  0  0  0  0  0  0  0  0  0
   -4.0743   -4.4680    0.9424 H   0  0  0  0  0  0  0  0  0  0  0  0
   -1.9981   -4.1502   -0.3598 H   0  0  0  0  0  0  0  0  0  0  0  0
   -3.3502   -4.6790   -1.3667 H   0  0  0  0  0  0  0  0  0  0  0  0
   -2.1016   -2.8476   -2.4414 H   0  0  0  0  0  0  0  0  0  0  0  0
   -1.5001   -1.6440    0.8208 H   0  0  0  0  0  0  0  0  0  0  0  0
   -3.5375    0.3594    1.7352 H   0  0  0  0  0  0  0  0  0  0  0  0
   -3.0277    0.1589    5.3923 H   0  0  0  0  0  0  0  0  0  0  0  0
   -3.0330    1.6170    4.4101 H   0  0  0  0  0  0  0  0  0  0  0  0
   -3.8191    0.1942    3.8171 H   0  0  0  0  0  0  0  0  0  0  0  0
    0.2731    1.2542    4.2283 H   0  0  0  0  0  0  0  0  0  0  0  0
   -0.1767    0.0345    5.4400 H   0  0  0  0  0  0  0  0  0  0  0  0
   -1.0311    1.5626    5.3173 H   0  0  0  0  0  0  0  0  0  0  0  0
   -0.0580    0.1809    0.6442 H   0  0  0  0  0  0  0  0  0  0  0  0
    0.5706    1.3892    1.6954 H   0  0  0  0  0  0  0  0  0  0  0  0
    1.4178   -0.1290    3.2594 H   0  0  0  0  0  0  0  0  0  0  0  0
    3.6964   -2.7180    0.5963 H   0  0  0  0  0  0  0  0  0  0  0  0
    2.6457   -0.7388   -0.8150 H   0  0  0  0  0  0  0  0  0  0  0  0
    2.1816   -1.8398   -2.7747 H   0  0  0  0  0  0  0  0  0  0  0  0
    2.8721   -3.1657   -4.7319 H   0  0  0  0  0  0  0  0  0  0  0  0
    5.2282   -3.8869   -4.9906 H   0  0  0  0  0  0  0  0  0  0  0  0
    6.9054   -3.2738   -3.2633 H   0  0  0  0  0  0  0  0  0  0  0  0
    6.2472   -1.9200   -1.3250 H   0  0  0  0  0  0  0  0  0  0  0  0
    5.3950    0.3659   -0.5246 H   0  0  0  0  0  0  0  0  0  0  0  0
    2.5181    3.9951   -1.4394 H   0  0  0  0  0  0  0  0  0  0  0  0
    3.4338    5.4910   -1.6328 H   0  0  0  0  0  0  0  0  0  0  0  0
    3.6673    4.4784   -0.1936 H   0  0  0  0  0  0  0  0  0  0  0  0
    3.4031    3.0045   -3.6759 H   0  0  0  0  0  0  0  0  0  0  0  0
    4.2631    4.5135   -3.9832 H   0  0  0  0  0  0  0  0  0  0  0  0
    5.1291    2.9597   -3.9751 H   0  0  0  0  0  0  0  0  0  0  0  0
    6.1784    4.5709   -0.7523 H   0  0  0  0  0  0  0  0  0  0  0  0
    5.8702    5.4720   -2.2600 H   0  0  0  0  0  0  0  0  0  0  0  0
    6.7605    3.9292   -2.2887 H   0  0  0  0  0  0  0  0  0  0  0  0
    5.3644   -1.5718    2.0037 H   0  0  0  0  0  0  0  0  0  0  0  0
   -1.5835    2.4859    1.5000 H   0  0  0  0  0  0  0  0  0  0  0  0
   -1.1361    2.8066   -1.0321 H   0  0  0  0  0  0  0  0  0  0  0  0
   -0.7275    4.5525   -2.7240 H   0  0  0  0  0  0  0  0  0  0  0  0
   -2.6297    5.7792   -3.7258 H   0  0  0  0  0  0  0  0  0  0  0  0
   -4.9612    5.2516   -3.0465 H   0  0  0  0  0  0  0  0  0  0  0  0
   -5.3932    3.4863   -1.3789 H   0  0  0  0  0  0  0  0  0  0  0  0
   -4.8134   -0.7551   -0.8519 H   0  0  0  0  0  0  0  0  0  0  0  0
   -4.0200   -0.0992   -2.2802 H   0  0  0  0  0  0  0  0  0  0  0  0
    0.7908   -0.1317   -3.1572 H   0  0  0  0  0  0  0  0  0  0  0  0
    0.1605    1.1912   -2.1368 H   0  0  0  0  0  0  0  0  0  0  0  0
   -0.1846    1.1832   -3.8639 H   0  0  0  0  0  0  0  0  0  0  0  0
   -5.2621   -3.4305   -1.1003 H   0  0  0  0  0  0  0  0  0  0  0  0
   -5.3935   -2.6458    2.3406 H   0  0  0  0  0  0  0  0  0  0  0  0
   -4.5981   -1.1934    2.8275 H   0  0  0  0  0  0  0  0  0  0  0  0
   -5.3397   -1.2422    1.2587 H   0  0  0  0  0  0  0  0  0  0  0  0
   -3.5520   -2.8675    5.1939 H   0  0  0  0  0  0  0  0  0  0  0  0
  1  2  1  0
  2  3  2  0
  3  4  1  0
  4  5  1  0
  5  6  2  0
  5  7  1  0
  7  8  1  0
  8  9  1  0
  9 10  1  0
 10 11  1  0
 11 12  1  0
 12 13  1  0
 13 14  1  0
 14 15  1  0
 15 16  1  0
 15 17  1  0
 14 18  1  0
 18 19  1  0
 19 20  1  0
 20 21  1  0
 21 22  2  0
 21 23  1  0
 23 24  1  0
 24 25  1  0
 25 26  2  0
 26 27  1  0
 27 28  2  0
 28 29  1  0
 29 30  2  0
 24 31  1  0
 31 32  1  0
 32 33  2  0
 32 34  1  0
 34 35  1  0
 35 36  1  0
 35 37  1  0
 35 38  1  0
 23 39  1  0
 14 40  1  1
 13 41  1  0
 41 42  1  0
 42 43  2  0
 42 44  1  0
 44 45  2  0
 45 46  1  0
 46 47  2  0
 47 48  1  0
 48 49  2  0
 11 50  1  0
 50 51  1  0
 11 52  1  6
 52 53  1  0
 53 54  2  0
 53 55  1  0
  8 56  1  0
  7 57  1  1
  4 58  1  0
 19  2  1  0
 15  3  1  0
 12  7  1  0
 51 10  1  0
 30 25  1  0
 49 44  1  0
  1 59  1  0
  1 60  1  0
  1 61  1  0
  4 62  1  1
  8 63  1  1
  9 64  1  0
  9 65  1  0
 10 66  1  6
 12 67  1  6
 13 68  1  1
 16 69  1  0
 16 70  1  0
 16 71  1  0
 17 72  1  0
 17 73  1  0
 17 74  1  0
 18 75  1  0
 18 76  1  0
 19 77  1  1
 23 78  1  6
 24 79  1  6
 26 80  1  0
 27 81  1  0
 28 82  1  0
 29 83  1  0
 30 84  1  0
 31 85  1  0
 36 86  1  0
 36 87  1  0
 36 88  1  0
 37 89  1  0
 37 90  1  0
 37 91  1  0
 38 92  1  0
 38 93  1  0
 38 94  1  0
 39 95  1  0
 40 96  1  0
 45 97  1  0
 46 98  1  0
 47 99  1  0
 48100  1  0
 49101  1  0
 50102  1  0
 50103  1  0
 55104  1  0
 55105  1  0
 55106  1  0
 56107  1  0
 57108  1  0
 57109  1  0
 57110  1  0
 58111  1  0
M  END
$$$$
