
     RDKit          3D

 49 48  0  0  0  0  0  0  0  0999 V2000
    8.2715   -0.0646    0.1702 C   0  0  0  0  0  0  0  0  0  0  0  0
    6.7696    0.1431    0.0476 C   0  0  0  0  0  0  0  0  0  0  0  0
    5.9938   -0.9980    0.7066 C   0  0  0  0  0  0  0  0  0  0  0  0
    4.4774   -0.8917    0.5149 C   0  0  0  0  0  0  0  0  0  0  0  0
    3.8636    0.3252    1.2121 C   0  0  0  0  0  0  0  0  0  0  0  0
    2.3314    0.3137    1.2113 C   0  0  0  0  0  0  0  0  0  0  0  0
    1.7243    0.4381   -0.1880 C   0  0  0  0  0  0  0  0  0  0  0  0
    0.1971    0.5279   -0.1232 C   0  0  0  0  0  0  0  0  0  0  0  0
   -0.4105    0.6467   -1.5227 C   0  0  0  0  0  0  0  0  0  0  0  0
   -1.9284    0.8416   -1.5088 C   0  0  0  0  0  0  0  0  0  0  0  0
   -2.6868   -0.3588   -0.9521 C   0  0  0  0  0  0  0  0  0  0  0  0
   -4.1713   -0.1925   -1.1459 C   0  0  0  0  0  0  0  0  0  0  0  0
   -4.8372   -0.8277   -1.9542 O   0  0  0  0  0  0  0  0  0  0  0  0
   -4.6656    0.7384   -0.2900 O   0  0  0  0  0  0  0  0  0  0  0  0
   -6.0661    1.0544   -0.4187 C   0  0  0  0  0  0  0  0  0  0  0  0
   -6.9520    0.2377    0.5350 C   0  0  0  0  0  0  0  0  0  0  0  0
   -6.8857   -1.2778    0.3195 C   0  0  0  0  0  0  0  0  0  0  0  0
   -7.2720   -1.6441   -0.9969 O   0  0  0  0  0  0  0  0  0  0  0  0
   -6.5996    0.5480    1.8885 O   0  0  0  0  0  0  0  0  0  0  0  0
    8.5808   -0.9936   -0.3192 H   0  0  0  0  0  0  0  0  0  0  0  0
    8.5764   -0.1108    1.2206 H   0  0  0  0  0  0  0  0  0  0  0  0
    8.8083    0.7634   -0.3035 H   0  0  0  0  0  0  0  0  0  0  0  0
    6.5094    1.0995    0.5132 H   0  0  0  0  0  0  0  0  0  0  0  0
    6.5020    0.2122   -1.0130 H   0  0  0  0  0  0  0  0  0  0  0  0
    6.3262   -1.9517    0.2779 H   0  0  0  0  0  0  0  0  0  0  0  0
    6.2278   -1.0358    1.7775 H   0  0  0  0  0  0  0  0  0  0  0  0
    4.0179   -1.8042    0.9144 H   0  0  0  0  0  0  0  0  0  0  0  0
    4.2535   -0.8661   -0.5576 H   0  0  0  0  0  0  0  0  0  0  0  0
    4.2148    1.2493    0.7393 H   0  0  0  0  0  0  0  0  0  0  0  0
    4.2043    0.3514    2.2545 H   0  0  0  0  0  0  0  0  0  0  0  0
    1.9834    1.1514    1.8284 H   0  0  0  0  0  0  0  0  0  0  0  0
    1.9701   -0.6034    1.6922 H   0  0  0  0  0  0  0  0  0  0  0  0
    2.0057   -0.4273   -0.7983 H   0  0  0  0  0  0  0  0  0  0  0  0
    2.1242    1.3309   -0.6837 H   0  0  0  0  0  0  0  0  0  0  0  0
   -0.1925   -0.3635    0.3813 H   0  0  0  0  0  0  0  0  0  0  0  0
   -0.0948    1.3969    0.4788 H   0  0  0  0  0  0  0  0  0  0  0  0
   -0.1596   -0.2433   -2.1127 H   0  0  0  0  0  0  0  0  0  0  0  0
    0.0402    1.5041   -2.0379 H   0  0  0  0  0  0  0  0  0  0  0  0
   -2.2625    1.0338   -2.5365 H   0  0  0  0  0  0  0  0  0  0  0  0
   -2.1790    1.7417   -0.9338 H   0  0  0  0  0  0  0  0  0  0  0  0
   -2.4928   -0.5102    0.1151 H   0  0  0  0  0  0  0  0  0  0  0  0
   -2.3820   -1.2781   -1.4656 H   0  0  0  0  0  0  0  0  0  0  0  0
   -6.3988    0.9545   -1.4586 H   0  0  0  0  0  0  0  0  0  0  0  0
   -6.1512    2.1163   -0.1609 H   0  0  0  0  0  0  0  0  0  0  0  0
   -7.9852    0.5723    0.3815 H   0  0  0  0  0  0  0  0  0  0  0  0
   -7.5708   -1.7728    1.0169 H   0  0  0  0  0  0  0  0  0  0  0  0
   -5.8914   -1.6807    0.5411 H   0  0  0  0  0  0  0  0  0  0  0  0
   -6.4890   -1.5064   -1.5746 H   0  0  0  0  0  0  0  0  0  0  0  0
   -7.2490    0.1105    2.4664 H   0  0  0  0  0  0  0  0  0  0  0  0
  1  2  1  0
  2  3  1  0
  3  4  1  0
  4  5  1  0
  5  6  1  0
  6  7  1  0
  7  8  1  0
  8  9  1  0
  9 10  1  0
 10 11  1  0
 11 12  1  0
 12 13  2  0
 12 14  1  0
 14 15  1  0
 15 16  1  0
 16 17  1  0
 17 18  1  0
 16 19  1  0
  1 20  1  0
  1 21  1  0
  1 22  1  0
  2 23  1  0
  2 24  1  0
  3 25  1  0
  3 26  1  0
  4 27  1  0
  4 28  1  0
  5 29  1  0
  5 30  1  0
  6 31  1  0
  6 32  1  0
  7 33  1  0
  7 34  1  0
  8 35  1  0
  8 36  1  0
  9 37  1  0
  9 38  1  0
 10 39  1  0
 10 40  1  0
 11 41  1  0
 11 42  1  0
 15 43  1  0
 15 44  1  0
 16 45  1  0
 17 46  1  0
 17 47  1  0
 18 48  1  0
 19 49  1  0
M  END
$$$$
