
     RDKit          3D

 81 82  0  0  0  0  0  0  0  0999 V2000
   -8.1574   -3.2500    2.0446 C   0  0  0  0  0  0  0  0  0  0  0  0
   -7.5454   -2.1515    1.2102 C   0  0  0  0  0  0  0  0  0  0  0  0
   -6.2338   -1.6938    1.4941 C   0  0  0  0  0  0  0  0  0  0  0  0
   -5.6226   -0.7669    0.6280 C   0  0  0  0  0  0  0  0  0  0  0  0
   -6.2926   -0.2769   -0.5014 C   0  0  0  0  0  0  0  0  0  0  0  0
   -5.5597    0.6998   -1.3746 C   0  0  0  0  0  0  0  0  0  0  0  0
   -4.1138    0.2429   -1.4500 C   0  0  0  0  0  0  0  0  0  0  0  0
   -3.4772    0.1633   -0.0528 C   0  0  1  0  0  0  0  0  0  0  0  0
   -4.3558   -0.3730    0.9643 O   0  0  0  0  0  0  0  0  0  0  0  0
   -2.3128   -0.8342   -0.0912 C   0  0  0  0  0  0  0  0  0  0  0  0
   -3.0341    1.5450    0.5072 C   0  0  0  0  0  0  0  0  0  0  0  0
   -2.2031    2.4998   -0.3671 C   0  0  0  0  0  0  0  0  0  0  0  0
   -0.7687    2.0910   -0.7290 C   0  0  0  0  0  0  0  0  0  0  0  0
    0.1961    1.7882    0.4439 C   0  0  2  0  0  0  0  0  0  0  0  0
    0.3401    2.9939    1.3823 C   0  0  0  0  0  0  0  0  0  0  0  0
    1.5658    1.3513   -0.1387 C   0  0  0  0  0  0  0  0  0  0  0  0
    2.6141    0.9201    0.8959 C   0  0  0  0  0  0  0  0  0  0  0  0
    3.8552    0.2099    0.3145 C   0  0  0  0  0  0  0  0  0  0  0  0
    4.8511    1.0898   -0.4829 C   0  0  2  0  0  0  0  0  0  0  0  0
    4.3139    1.4732   -1.8714 C   0  0  0  0  0  0  0  0  0  0  0  0
    6.2137    0.3718   -0.6863 C   0  0  0  0  0  0  0  0  0  0  0  0
    7.0098    0.1309    0.6053 C   0  0  0  0  0  0  0  0  0  0  0  0
    8.5221   -0.0709    0.3879 C   0  0  0  0  0  0  0  0  0  0  0  0
    8.9623   -1.4685   -0.0957 C   0  0  0  0  0  0  0  0  0  0  0  0
    8.5691   -1.7675   -1.5444 C   0  0  0  0  0  0  0  0  0  0  0  0
   10.4858   -1.5992    0.0493 C   0  0  0  0  0  0  0  0  0  0  0  0
   -7.6125   -0.7013   -0.7803 C   0  0  0  0  0  0  0  0  0  0  0  0
   -8.2021   -1.6470    0.0709 C   0  0  0  0  0  0  0  0  0  0  0  0
   -9.4604   -2.0877   -0.2484 O   0  0  0  0  0  0  0  0  0  0  0  0
   -8.3508   -0.1974   -1.9935 C   0  0  0  0  0  0  0  0  0  0  0  0
   -5.5050   -2.1958    2.7129 C   0  0  0  0  0  0  0  0  0  0  0  0
   -9.2368   -3.3392    1.9084 H   0  0  0  0  0  0  0  0  0  0  0  0
   -7.7046   -4.2097    1.7743 H   0  0  0  0  0  0  0  0  0  0  0  0
   -8.0079   -3.0681    3.1130 H   0  0  0  0  0  0  0  0  0  0  0  0
   -5.6464    1.7074   -0.9532 H   0  0  0  0  0  0  0  0  0  0  0  0
   -5.9632    0.7316   -2.3900 H   0  0  0  0  0  0  0  0  0  0  0  0
   -3.5397    0.8828   -2.1285 H   0  0  0  0  0  0  0  0  0  0  0  0
   -4.1069   -0.7535   -1.9201 H   0  0  0  0  0  0  0  0  0  0  0  0
   -2.6845   -1.8543   -0.2345 H   0  0  0  0  0  0  0  0  0  0  0  0
   -1.7737   -0.8460    0.8593 H   0  0  0  0  0  0  0  0  0  0  0  0
   -1.6003   -0.6327   -0.8936 H   0  0  0  0  0  0  0  0  0  0  0  0
   -2.5195    1.3941    1.4626 H   0  0  0  0  0  0  0  0  0  0  0  0
   -3.9446    2.0929    0.7871 H   0  0  0  0  0  0  0  0  0  0  0  0
   -2.1614    3.4672    0.1523 H   0  0  0  0  0  0  0  0  0  0  0  0
   -2.7453    2.7124   -1.2919 H   0  0  0  0  0  0  0  0  0  0  0  0
   -0.8111    1.2290   -1.4050 H   0  0  0  0  0  0  0  0  0  0  0  0
   -0.3413    2.8999   -1.3383 H   0  0  0  0  0  0  0  0  0  0  0  0
   -0.2047    0.9507    1.0259 H   0  0  0  0  0  0  0  0  0  0  0  0
    1.0146    2.7768    2.2168 H   0  0  0  0  0  0  0  0  0  0  0  0
    0.7350    3.8669    0.8508 H   0  0  0  0  0  0  0  0  0  0  0  0
   -0.6262    3.2653    1.8211 H   0  0  0  0  0  0  0  0  0  0  0  0
    1.4063    0.5191   -0.8382 H   0  0  0  0  0  0  0  0  0  0  0  0
    1.9584    2.1894   -0.7133 H   0  0  0  0  0  0  0  0  0  0  0  0
    2.9493    1.7828    1.4851 H   0  0  0  0  0  0  0  0  0  0  0  0
    2.1353    0.2263    1.6004 H   0  0  0  0  0  0  0  0  0  0  0  0
    3.5334   -0.6445   -0.2960 H   0  0  0  0  0  0  0  0  0  0  0  0
    4.3770   -0.2149    1.1763 H   0  0  0  0  0  0  0  0  0  0  0  0
    5.0389    2.0139    0.0747 H   0  0  0  0  0  0  0  0  0  0  0  0
    3.6444    2.3316   -1.8079 H   0  0  0  0  0  0  0  0  0  0  0  0
    5.1168    1.7710   -2.5558 H   0  0  0  0  0  0  0  0  0  0  0  0
    3.7701    0.6437   -2.3398 H   0  0  0  0  0  0  0  0  0  0  0  0
    6.8332    0.9815   -1.3561 H   0  0  0  0  0  0  0  0  0  0  0  0
    6.0323   -0.5805   -1.1938 H   0  0  0  0  0  0  0  0  0  0  0  0
    6.6019   -0.7220    1.1553 H   0  0  0  0  0  0  0  0  0  0  0  0
    6.8897    1.0105    1.2552 H   0  0  0  0  0  0  0  0  0  0  0  0
    8.9051    0.7008   -0.2923 H   0  0  0  0  0  0  0  0  0  0  0  0
    8.9987    0.1187    1.3571 H   0  0  0  0  0  0  0  0  0  0  0  0
    8.5063   -2.2316    0.5476 H   0  0  0  0  0  0  0  0  0  0  0  0
    8.7784   -0.9102   -2.1985 H   0  0  0  0  0  0  0  0  0  0  0  0
    9.1124   -2.6368   -1.9381 H   0  0  0  0  0  0  0  0  0  0  0  0
    7.5044   -2.0065   -1.6167 H   0  0  0  0  0  0  0  0  0  0  0  0
   11.0155   -0.8503   -0.5536 H   0  0  0  0  0  0  0  0  0  0  0  0
   10.8272   -2.5910   -0.2726 H   0  0  0  0  0  0  0  0  0  0  0  0
   10.7943   -1.4734    1.0938 H   0  0  0  0  0  0  0  0  0  0  0  0
   -9.9873   -2.0124    0.5656 H   0  0  0  0  0  0  0  0  0  0  0  0
   -8.2929    0.8942   -2.0437 H   0  0  0  0  0  0  0  0  0  0  0  0
   -7.9174   -0.6369   -2.8977 H   0  0  0  0  0  0  0  0  0  0  0  0
   -9.4158   -0.4469   -1.9715 H   0  0  0  0  0  0  0  0  0  0  0  0
   -5.4593   -3.2907    2.7124 H   0  0  0  0  0  0  0  0  0  0  0  0
   -4.4714   -1.8481    2.7693 H   0  0  0  0  0  0  0  0  0  0  0  0
   -6.0083   -1.8499    3.6205 H   0  0  0  0  0  0  0  0  0  0  0  0
  1  2  1  0
  2  3  2  0
  3  4  1  0
  4  5  2  0
  5  6  1  0
  6  7  1  0
  7  8  1  0
  8  9  1  0
  8 10  1  6
  8 11  1  0
 11 12  1  0
 12 13  1  0
 13 14  1  0
 14 15  1  0
 14 16  1  0
 16 17  1  0
 17 18  1  0
 18 19  1  0
 19 20  1  0
 19 21  1  0
 21 22  1  0
 22 23  1  0
 23 24  1  0
 24 25  1  0
 24 26  1  0
  5 27  1  0
 27 28  2  0
 28 29  1  0
 27 30  1  0
  3 31  1  0
 28  2  1  0
  9  4  1  0
  1 32  1  0
  1 33  1  0
  1 34  1  0
  6 35  1  0
  6 36  1  0
  7 37  1  0
  7 38  1  0
 10 39  1  0
 10 40  1  0
 10 41  1  0
 11 42  1  0
 11 43  1  0
 12 44  1  0
 12 45  1  0
 13 46  1  0
 13 47  1  0
 14 48  1  1
 15 49  1  0
 15 50  1  0
 15 51  1  0
 16 52  1  0
 16 53  1  0
 17 54  1  0
 17 55  1  0
 18 56  1  0
 18 57  1  0
 19 58  1  1
 20 59  1  0
 20 60  1  0
 20 61  1  0
 21 62  1  0
 21 63  1  0
 22 64  1  0
 22 65  1  0
 23 66  1  0
 23 67  1  0
 24 68  1  0
 25 69  1  0
 25 70  1  0
 25 71  1  0
 26 72  1  0
 26 73  1  0
 26 74  1  0
 29 75  1  0
 30 76  1  0
 30 77  1  0
 30 78  1  0
 31 79  1  0
 31 80  1  0
 31 81  1  0
M  END
$$$$
