
     RDKit          3D

 40 43  0  0  0  0  0  0  0  0999 V2000
   -1.0344   -2.6381   -2.0194 C   0  0  0  0  0  0  0  0  0  0  0  0
    0.1878   -3.0482   -1.5159 C   0  0  0  0  0  0  0  0  0  0  0  0
    0.8971   -2.2119   -0.6504 C   0  0  0  0  0  0  0  0  0  0  0  0
    0.3974   -0.9422   -0.2613 C   0  0  0  0  0  0  0  0  0  0  0  0
   -0.8503   -0.5187   -0.7797 C   0  0  0  0  0  0  0  0  0  0  0  0
   -1.5455   -1.3919   -1.6614 C   0  0  0  0  0  0  0  0  0  0  0  0
   -1.3133    0.7610   -0.4082 C   0  0  0  0  0  0  0  0  0  0  0  0
   -0.5965    1.5695    0.4079 N   0  0  0  0  0  0  0  0  0  0  0  0
    0.6132    1.1631    0.8935 N   0  0  0  0  0  0  0  0  0  0  0  0
    1.1039   -0.0598    0.5941 C   0  0  0  0  0  0  0  0  0  0  0  0
    2.3724   -0.4143    1.0856 N   0  0  0  0  0  0  0  0  0  0  0  0
    3.6070    0.1999    0.8362 C   0  0  0  0  0  0  0  0  0  0  0  0
    3.7312    1.3719    0.0784 C   0  0  0  0  0  0  0  0  0  0  0  0
    4.9837    1.9404   -0.1715 C   0  0  0  0  0  0  0  0  0  0  0  0
    6.1301    1.3456    0.3471 C   0  0  0  0  0  0  0  0  0  0  0  0
    6.0295    0.1982    1.1269 C   0  0  0  0  0  0  0  0  0  0  0  0
    4.7718   -0.3683    1.3752 C   0  0  0  0  0  0  0  0  0  0  0  0
    7.6751    2.0227    0.0169 Cl  0  0  0  0  0  0  0  0  0  0  0  0
   -2.6277    1.3520   -0.8686 C   0  0  0  0  0  0  0  0  0  0  0  0
   -3.8234    0.9176   -0.0477 C   0  0  0  0  0  0  0  0  0  0  0  0
   -4.8156    0.0947   -0.5902 C   0  0  0  0  0  0  0  0  0  0  0  0
   -5.8896   -0.2691    0.2101 C   0  0  0  0  0  0  0  0  0  0  0  0
   -6.0456    0.1311    1.4892 N   0  0  0  0  0  0  0  0  0  0  0  0
   -5.0802    0.9299    1.9961 C   0  0  0  0  0  0  0  0  0  0  0  0
   -3.9669    1.3444    1.2794 C   0  0  0  0  0  0  0  0  0  0  0  0
   -1.5881   -3.2807   -2.7023 H   0  0  0  0  0  0  0  0  0  0  0  0
    0.6016   -4.0113   -1.8001 H   0  0  0  0  0  0  0  0  0  0  0  0
    1.8667   -2.5584   -0.2996 H   0  0  0  0  0  0  0  0  0  0  0  0
   -2.4992   -1.1034   -2.0970 H   0  0  0  0  0  0  0  0  0  0  0  0
    2.4135   -1.3421    1.4769 H   0  0  0  0  0  0  0  0  0  0  0  0
    2.8531    1.8601   -0.3383 H   0  0  0  0  0  0  0  0  0  0  0  0
    5.0533    2.8438   -0.7722 H   0  0  0  0  0  0  0  0  0  0  0  0
    6.9193   -0.2654    1.5467 H   0  0  0  0  0  0  0  0  0  0  0  0
    4.7184   -1.2660    1.9879 H   0  0  0  0  0  0  0  0  0  0  0  0
   -2.5672    2.4479   -0.8200 H   0  0  0  0  0  0  0  0  0  0  0  0
   -2.7843    1.1383   -1.9316 H   0  0  0  0  0  0  0  0  0  0  0  0
   -4.7640   -0.2594   -1.6151 H   0  0  0  0  0  0  0  0  0  0  0  0
   -6.6793   -0.9118   -0.1736 H   0  0  0  0  0  0  0  0  0  0  0  0
   -5.2269    1.2402    3.0275 H   0  0  0  0  0  0  0  0  0  0  0  0
   -3.2278    1.9886    1.7486 H   0  0  0  0  0  0  0  0  0  0  0  0
  1  2  2  0
  2  3  1  0
  3  4  2  0
  4  5  1  0
  5  6  2  0
  5  7  1  0
  7  8  2  0
  8  9  1  0
  9 10  2  0
 10 11  1  0
 11 12  1  0
 12 13  2  0
 13 14  1  0
 14 15  2  0
 15 16  1  0
 16 17  2  0
 15 18  1  0
  7 19  1  0
 19 20  1  0
 20 21  2  0
 21 22  1  0
 22 23  2  0
 23 24  1  0
 24 25  2  0
  6  1  1  0
 10  4  1  0
 17 12  1  0
 25 20  1  0
  1 26  1  0
  2 27  1  0
  3 28  1  0
  6 29  1  0
 11 30  1  0
 13 31  1  0
 14 32  1  0
 16 33  1  0
 17 34  1  0
 19 35  1  0
 19 36  1  0
 21 37  1  0
 22 38  1  0
 24 39  1  0
 25 40  1  0
M  END
$$$$
