
     RDKit          3D

 82 85  0  0  0  0  0  0  0  0999 V2000
    6.4771   -0.3834    1.9766 C   0  0  0  0  0  0  0  0  0  0  0  0
    5.4206   -1.1949    1.2158 C   0  0  0  0  0  0  0  0  0  0  0  0
    5.4950   -2.6620    1.6524 C   0  0  0  0  0  0  0  0  0  0  0  0
    5.4813   -1.0858   -0.3093 C   0  0  0  0  0  0  0  0  0  0  0  0
    6.5522   -0.6252   -0.9814 C   0  0  0  0  0  0  0  0  0  0  0  0
    4.2317   -1.5587   -1.0383 C   0  0  0  0  0  0  0  0  0  0  0  0
    3.7441   -0.7064   -2.2216 C   0  0  0  0  0  0  0  0  0  0  0  0
    3.4400    0.7792   -1.9079 C   0  0  2  0  0  0  0  0  0  0  0  0
    2.3643    1.0040   -0.8094 C   0  0  1  0  0  0  0  0  0  0  0  0
    2.2554    2.4823   -0.3313 C   0  0  0  0  0  0  0  0  0  0  0  0
    0.8006    2.7059    0.1293 C   0  0  0  0  0  0  0  0  0  0  0  0
    0.2030    1.2912    0.2508 C   0  0  2  0  0  0  0  0  0  0  0  0
    0.8751    0.5777   -0.9800 C   0  0  2  0  0  0  0  0  0  0  0  0
    0.5599   -0.9244   -0.8662 C   0  0  0  0  0  0  0  0  0  0  0  0
   -0.9223   -1.1579   -0.6582 C   0  0  0  0  0  0  0  0  0  0  0  0
   -1.8043   -0.2278   -0.2224 C   0  0  0  0  0  0  0  0  0  0  0  0
   -1.3144    1.1134    0.2105 C   0  0  0  0  0  0  0  0  0  0  0  0
   -2.1618    2.0852    0.6057 C   0  0  0  0  0  0  0  0  0  0  0  0
   -3.6364    1.8782    0.8222 C   0  0  0  0  0  0  0  0  0  0  0  0
   -3.9207    0.3760    0.9836 C   0  0  2  0  0  0  0  0  0  0  0  0
   -3.3508   -0.4183   -0.2505 C   0  0  2  0  0  0  0  0  0  0  0  0
   -3.8770   -1.8876   -0.1981 C   0  0  0  0  0  0  0  0  0  0  0  0
   -4.1960   -2.3589    1.2148 C   0  0  0  0  0  0  0  0  0  0  0  0
   -5.3278   -1.5387    1.8560 C   0  0  1  0  0  0  0  0  0  0  0  0
   -5.3626   -0.0274    1.4338 C   0  0  0  0  0  0  0  0  0  0  0  0
   -5.7817    0.7836    2.6874 C   0  0  0  0  0  0  0  0  0  0  0  0
   -6.4390    0.2610    0.3684 C   0  0  0  0  0  0  0  0  0  0  0  0
   -6.5829   -2.1605    1.5794 O   0  0  0  0  0  0  0  0  0  0  0  0
   -3.7779    0.1483   -1.6358 C   0  0  0  0  0  0  0  0  0  0  0  0
    0.3194    1.0917   -2.3436 C   0  0  0  0  0  0  0  0  0  0  0  0
    0.6324    0.7432    1.6522 C   0  0  0  0  0  0  0  0  0  0  0  0
    3.2431    1.5779   -3.1905 C   0  0  0  0  0  0  0  0  0  0  0  0
    3.3538    2.7882   -3.3074 O   0  0  0  0  0  0  0  0  0  0  0  0
    2.9158    0.8427   -4.2687 O   0  0  0  0  0  0  0  0  0  0  0  0
    6.4529    0.6713    1.6814 H   0  0  0  0  0  0  0  0  0  0  0  0
    6.2872   -0.4262    3.0551 H   0  0  0  0  0  0  0  0  0  0  0  0
    7.4884   -0.7692    1.8070 H   0  0  0  0  0  0  0  0  0  0  0  0
    4.4485   -0.7941    1.5337 H   0  0  0  0  0  0  0  0  0  0  0  0
    4.6925   -3.2567    1.2035 H   0  0  0  0  0  0  0  0  0  0  0  0
    6.4504   -3.1145    1.3643 H   0  0  0  0  0  0  0  0  0  0  0  0
    5.3961   -2.7481    2.7400 H   0  0  0  0  0  0  0  0  0  0  0  0
    7.4570   -0.2943   -0.4827 H   0  0  0  0  0  0  0  0  0  0  0  0
    6.5742   -0.5806   -2.0659 H   0  0  0  0  0  0  0  0  0  0  0  0
    3.4079   -1.6562   -0.3237 H   0  0  0  0  0  0  0  0  0  0  0  0
    4.4204   -2.5792   -1.3974 H   0  0  0  0  0  0  0  0  0  0  0  0
    2.8539   -1.1842   -2.6452 H   0  0  0  0  0  0  0  0  0  0  0  0
    4.4961   -0.7589   -3.0202 H   0  0  0  0  0  0  0  0  0  0  0  0
    4.3756    1.1964   -1.5080 H   0  0  0  0  0  0  0  0  0  0  0  0
    2.7500    0.4516    0.0558 H   0  0  0  0  0  0  0  0  0  0  0  0
    2.5012    3.2140   -1.1033 H   0  0  0  0  0  0  0  0  0  0  0  0
    2.9516    2.6525    0.4988 H   0  0  0  0  0  0  0  0  0  0  0  0
    0.7694    3.2705    1.0681 H   0  0  0  0  0  0  0  0  0  0  0  0
    0.2650    3.3045   -0.6174 H   0  0  0  0  0  0  0  0  0  0  0  0
    1.1107   -1.4009   -0.0488 H   0  0  0  0  0  0  0  0  0  0  0  0
    0.8565   -1.4430   -1.7841 H   0  0  0  0  0  0  0  0  0  0  0  0
   -1.2557   -2.1341   -0.9913 H   0  0  0  0  0  0  0  0  0  0  0  0
   -1.7796    3.0591    0.9000 H   0  0  0  0  0  0  0  0  0  0  0  0
   -3.9037    2.4114    1.7406 H   0  0  0  0  0  0  0  0  0  0  0  0
   -4.2091    2.3329    0.0086 H   0  0  0  0  0  0  0  0  0  0  0  0
   -3.3003    0.0776    1.8492 H   0  0  0  0  0  0  0  0  0  0  0  0
   -4.7959   -1.9804   -0.7916 H   0  0  0  0  0  0  0  0  0  0  0  0
   -3.1870   -2.5962   -0.6617 H   0  0  0  0  0  0  0  0  0  0  0  0
   -4.4666   -3.4211    1.1862 H   0  0  0  0  0  0  0  0  0  0  0  0
   -3.2893   -2.2794    1.8272 H   0  0  0  0  0  0  0  0  0  0  0  0
   -5.1913   -1.6139    2.9427 H   0  0  0  0  0  0  0  0  0  0  0  0
   -5.0153    0.7329    3.4690 H   0  0  0  0  0  0  0  0  0  0  0  0
   -5.9534    1.8391    2.4502 H   0  0  0  0  0  0  0  0  0  0  0  0
   -6.7141    0.3947    3.1138 H   0  0  0  0  0  0  0  0  0  0  0  0
   -7.4474    0.1865    0.7939 H   0  0  0  0  0  0  0  0  0  0  0  0
   -6.3413    1.2734   -0.0366 H   0  0  0  0  0  0  0  0  0  0  0  0
   -6.4063   -0.4469   -0.4623 H   0  0  0  0  0  0  0  0  0  0  0  0
   -6.5538   -3.0604    1.9469 H   0  0  0  0  0  0  0  0  0  0  0  0
   -3.3838   -0.4808   -2.4445 H   0  0  0  0  0  0  0  0  0  0  0  0
   -4.8605    0.1802   -1.7647 H   0  0  0  0  0  0  0  0  0  0  0  0
   -3.4061    1.1614   -1.8221 H   0  0  0  0  0  0  0  0  0  0  0  0
    0.6791    0.4661   -3.1659 H   0  0  0  0  0  0  0  0  0  0  0  0
   -0.7721    1.0650   -2.4030 H   0  0  0  0  0  0  0  0  0  0  0  0
    0.6119    2.1243   -2.5557 H   0  0  0  0  0  0  0  0  0  0  0  0
    0.3522   -0.3042    1.8046 H   0  0  0  0  0  0  0  0  0  0  0  0
    1.7075    0.8214    1.8371 H   0  0  0  0  0  0  0  0  0  0  0  0
    0.1454    1.3176    2.4515 H   0  0  0  0  0  0  0  0  0  0  0  0
    2.8218    1.5068   -4.9840 H   0  0  0  0  0  0  0  0  0  0  0  0
  1  2  1  0
  2  3  1  0
  2  4  1  0
  4  5  2  3
  4  6  1  0
  6  7  1  0
  7  8  1  0
  8  9  1  0
  9 10  1  0
 10 11  1  0
 11 12  1  0
 12 13  1  0
 13 14  1  0
 14 15  1  0
 15 16  2  0
 16 17  1  0
 17 18  2  0
 18 19  1  0
 19 20  1  0
 20 21  1  0
 21 22  1  0
 22 23  1  0
 23 24  1  0
 24 25  1  0
 25 26  1  0
 25 27  1  0
 24 28  1  0
 21 29  1  6
 13 30  1  6
 12 31  1  1
  8 32  1  0
 32 33  2  0
 32 34  1  0
 13  9  1  0
 17 12  1  0
 21 16  1  0
 25 20  1  0
  1 35  1  0
  1 36  1  0
  1 37  1  0
  2 38  1  0
  3 39  1  0
  3 40  1  0
  3 41  1  0
  5 42  1  0
  5 43  1  0
  6 44  1  0
  6 45  1  0
  7 46  1  0
  7 47  1  0
  8 48  1  1
  9 49  1  1
 10 50  1  0
 10 51  1  0
 11 52  1  0
 11 53  1  0
 14 54  1  0
 14 55  1  0
 15 56  1  0
 18 57  1  0
 19 58  1  0
 19 59  1  0
 20 60  1  1
 22 61  1  0
 22 62  1  0
 23 63  1  0
 23 64  1  0
 24 65  1  1
 26 66  1  0
 26 67  1  0
 26 68  1  0
 27 69  1  0
 27 70  1  0
 27 71  1  0
 28 72  1  0
 29 73  1  0
 29 74  1  0
 29 75  1  0
 30 76  1  0
 30 77  1  0
 30 78  1  0
 31 79  1  0
 31 80  1  0
 31 81  1  0
 34 82  1  0
M  END
$$$$
