
     RDKit          3D

 56 59  0  0  0  0  0  0  0  0999 V2000
    0.3481    0.0007    1.6809 C   0  0  0  0  0  0  0  0  0  0  0  0
   -0.9792   -0.5870    1.1469 C   0  0  0  0  0  0  0  0  0  0  0  0
   -1.3964   -0.0353   -0.1422 N   0  0  0  0  0  0  0  0  0  0  0  0
   -0.4946    0.9719   -0.6946 C   0  0  0  0  0  0  0  0  0  0  0  0
    0.9717    0.4749   -0.6358 C   0  0  0  0  0  0  0  0  0  0  0  0
    1.4553    0.0847    0.7133 N   0  0  0  0  0  0  0  0  0  0  0  0
    2.2254   -1.1655    0.6643 C   0  0  0  0  0  0  0  0  0  0  0  0
    3.6394   -1.0342    0.1542 C   0  0  0  0  0  0  0  0  0  0  0  0
    4.3094    0.1058   -0.0842 C   0  0  0  0  0  0  0  0  0  0  0  0
    5.7100    0.1536   -0.5172 C   0  0  0  0  0  0  0  0  0  0  0  0
    6.7031   -0.5822    0.1412 C   0  0  0  0  0  0  0  0  0  0  0  0
    8.0413   -0.4659   -0.2419 C   0  0  0  0  0  0  0  0  0  0  0  0
    8.3975    0.3920   -1.2822 C   0  0  0  0  0  0  0  0  0  0  0  0
    7.4169    1.1295   -1.9435 C   0  0  0  0  0  0  0  0  0  0  0  0
    6.0785    1.0142   -1.5590 C   0  0  0  0  0  0  0  0  0  0  0  0
   -2.8334    0.1525   -0.3845 C   0  0  0  0  0  0  0  0  0  0  0  0
   -3.5771   -1.1887   -0.2741 C   0  0  0  0  0  0  0  0  0  0  0  0
   -4.2269   -1.5968    0.9042 C   0  0  0  0  0  0  0  0  0  0  0  0
   -4.8771   -2.8330    0.9690 C   0  0  0  0  0  0  0  0  0  0  0  0
   -4.8815   -3.6810   -0.1377 C   0  0  0  0  0  0  0  0  0  0  0  0
   -4.2309   -3.2990   -1.3094 C   0  0  0  0  0  0  0  0  0  0  0  0
   -3.5798   -2.0651   -1.3755 C   0  0  0  0  0  0  0  0  0  0  0  0
   -3.5508    1.3264    0.3008 C   0  0  0  0  0  0  0  0  0  0  0  0
   -4.8586    1.6503   -0.1312 C   0  0  0  0  0  0  0  0  0  0  0  0
   -5.5682    2.7153    0.4283 C   0  0  0  0  0  0  0  0  0  0  0  0
   -4.9826    3.4902    1.4276 C   0  0  0  0  0  0  0  0  0  0  0  0
   -3.6953    3.1923    1.8699 C   0  0  0  0  0  0  0  0  0  0  0  0
   -2.9897    2.1190    1.3155 C   0  0  0  0  0  0  0  0  0  0  0  0
    0.6482   -0.5381    2.5889 H   0  0  0  0  0  0  0  0  0  0  0  0
    0.1539    1.0255    2.0237 H   0  0  0  0  0  0  0  0  0  0  0  0
   -1.7372   -0.4337    1.9240 H   0  0  0  0  0  0  0  0  0  0  0  0
   -0.8600   -1.6724    1.0315 H   0  0  0  0  0  0  0  0  0  0  0  0
   -0.5761    1.9287   -0.1655 H   0  0  0  0  0  0  0  0  0  0  0  0
   -0.7412    1.1655   -1.7452 H   0  0  0  0  0  0  0  0  0  0  0  0
    1.6229    1.2711   -1.0225 H   0  0  0  0  0  0  0  0  0  0  0  0
    1.0586   -0.3658   -1.3427 H   0  0  0  0  0  0  0  0  0  0  0  0
    1.6968   -1.9337    0.0842 H   0  0  0  0  0  0  0  0  0  0  0  0
    2.3299   -1.5759    1.6781 H   0  0  0  0  0  0  0  0  0  0  0  0
    4.1460   -1.9851    0.0007 H   0  0  0  0  0  0  0  0  0  0  0  0
    3.8308    1.0704    0.0627 H   0  0  0  0  0  0  0  0  0  0  0  0
    6.4445   -1.2389    0.9692 H   0  0  0  0  0  0  0  0  0  0  0  0
    8.8047   -1.0351    0.2800 H   0  0  0  0  0  0  0  0  0  0  0  0
    9.4396    0.4880   -1.5755 H   0  0  0  0  0  0  0  0  0  0  0  0
    7.6948    1.8014   -2.7520 H   0  0  0  0  0  0  0  0  0  0  0  0
    5.3261    1.5967   -2.0813 H   0  0  0  0  0  0  0  0  0  0  0  0
   -2.9091    0.4177   -1.4518 H   0  0  0  0  0  0  0  0  0  0  0  0
   -4.2327   -0.9533    1.7825 H   0  0  0  0  0  0  0  0  0  0  0  0
   -5.3806   -3.1336    1.8862 H   0  0  0  0  0  0  0  0  0  0  0  0
   -5.3868   -4.6429   -0.0863 H   0  0  0  0  0  0  0  0  0  0  0  0
   -4.2260   -3.9621   -2.1705 H   0  0  0  0  0  0  0  0  0  0  0  0
   -3.0634   -1.7873   -2.2925 H   0  0  0  0  0  0  0  0  0  0  0  0
   -5.3369    1.0583   -0.9130 H   0  0  0  0  0  0  0  0  0  0  0  0
   -6.5738    2.9400    0.0787 H   0  0  0  0  0  0  0  0  0  0  0  0
   -5.5265    4.3257    1.8585 H   0  0  0  0  0  0  0  0  0  0  0  0
   -3.2309    3.8010    2.6440 H   0  0  0  0  0  0  0  0  0  0  0  0
   -1.9903    1.9282    1.6925 H   0  0  0  0  0  0  0  0  0  0  0  0
  1  2  1  0
  2  3  1  0
  3  4  1  0
  4  5  1  0
  5  6  1  0
  6  7  1  0
  7  8  1  0
  8  9  2  0
  9 10  1  0
 10 11  2  0
 11 12  1  0
 12 13  2  0
 13 14  1  0
 14 15  2  0
  3 16  1  0
 16 17  1  0
 17 18  2  0
 18 19  1  0
 19 20  2  0
 20 21  1  0
 21 22  2  0
 16 23  1  0
 23 24  2  0
 24 25  1  0
 25 26  2  0
 26 27  1  0
 27 28  2  0
  6  1  1  0
 15 10  1  0
 22 17  1  0
 28 23  1  0
  1 29  1  0
  1 30  1  0
  2 31  1  0
  2 32  1  0
  4 33  1  0
  4 34  1  0
  5 35  1  0
  5 36  1  0
  7 37  1  0
  7 38  1  0
  8 39  1  0
  9 40  1  0
 11 41  1  0
 12 42  1  0
 13 43  1  0
 14 44  1  0
 15 45  1  0
 16 46  1  0
 18 47  1  0
 19 48  1  0
 20 49  1  0
 21 50  1  0
 22 51  1  0
 24 52  1  0
 25 53  1  0
 26 54  1  0
 27 55  1  0
 28 56  1  0
M  END
$$$$
