
     RDKit          3D

 49 49  0  0  0  0  0  0  0  0999 V2000
    7.0417   -2.1315   -0.6487 C   0  0  0  0  0  0  0  0  0  0  0  0
    7.0910   -0.7491   -0.9810 O   0  0  0  0  0  0  0  0  0  0  0  0
    6.0940    0.0430   -0.4713 C   0  0  0  0  0  0  0  0  0  0  0  0
    5.0112   -0.3864    0.2984 C   0  0  0  0  0  0  0  0  0  0  0  0
    4.0572    0.5386    0.7630 C   0  0  0  0  0  0  0  0  0  0  0  0
    2.8718    0.0799    1.5747 C   0  0  0  0  0  0  0  0  0  0  0  0
    1.6976   -0.0366    0.7400 N   0  0  0  0  0  0  0  0  0  0  0  0
    0.7131    0.9278    0.7355 C   0  0  0  0  0  0  0  0  0  0  0  0
    0.7089    1.8939    1.4889 O   0  0  0  0  0  0  0  0  0  0  0  0
   -0.3490    0.6731   -0.3189 C   0  0  0  0  0  0  0  0  0  0  0  0
   -1.5672    1.5888   -0.2031 C   0  0  0  0  0  0  0  0  0  0  0  0
   -2.4373    1.3652    1.0423 C   0  0  0  0  0  0  0  0  0  0  0  0
   -2.9904   -0.0510    1.2341 C   0  0  0  0  0  0  0  0  0  0  0  0
   -3.8605   -0.5129    0.0991 C   0  0  0  0  0  0  0  0  0  0  0  0
   -5.1819   -0.7237    0.2092 C   0  0  0  0  0  0  0  0  0  0  0  0
   -6.0565   -1.1935   -0.9271 C   0  0  0  0  0  0  0  0  0  0  0  0
   -6.7025   -2.5336   -0.5772 C   0  0  0  0  0  0  0  0  0  0  0  0
   -7.1249   -0.1461   -1.2385 C   0  0  0  0  0  0  0  0  0  0  0  0
    4.1965    1.8969    0.4348 C   0  0  0  0  0  0  0  0  0  0  0  0
    5.2733    2.3306   -0.3356 C   0  0  0  0  0  0  0  0  0  0  0  0
    6.2068    1.4037   -0.7786 C   0  0  0  0  0  0  0  0  0  0  0  0
    7.2555    1.8538   -1.5348 O   0  0  0  0  0  0  0  0  0  0  0  0
    7.1083   -2.2806    0.4341 H   0  0  0  0  0  0  0  0  0  0  0  0
    7.9102   -2.6157   -1.1054 H   0  0  0  0  0  0  0  0  0  0  0  0
    6.1431   -2.6032   -1.0596 H   0  0  0  0  0  0  0  0  0  0  0  0
    4.8845   -1.4335    0.5525 H   0  0  0  0  0  0  0  0  0  0  0  0
    2.6960    0.7665    2.4103 H   0  0  0  0  0  0  0  0  0  0  0  0
    3.0618   -0.9101    2.0037 H   0  0  0  0  0  0  0  0  0  0  0  0
    1.7320   -0.6968   -0.0244 H   0  0  0  0  0  0  0  0  0  0  0  0
   -0.6471   -0.3799   -0.2887 H   0  0  0  0  0  0  0  0  0  0  0  0
    0.1242    0.8476   -1.2933 H   0  0  0  0  0  0  0  0  0  0  0  0
   -2.1843    1.4639   -1.1009 H   0  0  0  0  0  0  0  0  0  0  0  0
   -1.2372    2.6354   -0.2069 H   0  0  0  0  0  0  0  0  0  0  0  0
   -3.2769    2.0716    1.0011 H   0  0  0  0  0  0  0  0  0  0  0  0
   -1.8646    1.6327    1.9380 H   0  0  0  0  0  0  0  0  0  0  0  0
   -2.1710   -0.7664    1.3653 H   0  0  0  0  0  0  0  0  0  0  0  0
   -3.5567   -0.0716    2.1739 H   0  0  0  0  0  0  0  0  0  0  0  0
   -3.3682   -0.6940   -0.8537 H   0  0  0  0  0  0  0  0  0  0  0  0
   -5.6747   -0.5473    1.1644 H   0  0  0  0  0  0  0  0  0  0  0  0
   -5.4493   -1.3362   -1.8301 H   0  0  0  0  0  0  0  0  0  0  0  0
   -7.3197   -2.8939   -1.4073 H   0  0  0  0  0  0  0  0  0  0  0  0
   -5.9410   -3.2946   -0.3733 H   0  0  0  0  0  0  0  0  0  0  0  0
   -7.3437   -2.4533    0.3080 H   0  0  0  0  0  0  0  0  0  0  0  0
   -7.7488   -0.4680   -2.0792 H   0  0  0  0  0  0  0  0  0  0  0  0
   -6.6673    0.8117   -1.5106 H   0  0  0  0  0  0  0  0  0  0  0  0
   -7.7825    0.0272   -0.3790 H   0  0  0  0  0  0  0  0  0  0  0  0
    3.4588    2.6212    0.7787 H   0  0  0  0  0  0  0  0  0  0  0  0
    5.3827    3.3806   -0.5893 H   0  0  0  0  0  0  0  0  0  0  0  0
    7.7830    1.0560   -1.7323 H   0  0  0  0  0  0  0  0  0  0  0  0
  1  2  1  0
  2  3  1  0
  3  4  2  0
  4  5  1  0
  5  6  1  0
  6  7  1  0
  7  8  1  0
  8  9  2  0
  8 10  1  0
 10 11  1  0
 11 12  1  0
 12 13  1  0
 13 14  1  0
 14 15  2  0
 15 16  1  0
 16 17  1  0
 16 18  1  0
  5 19  2  0
 19 20  1  0
 20 21  2  0
 21 22  1  0
 21  3  1  0
  1 23  1  0
  1 24  1  0
  1 25  1  0
  4 26  1  0
  6 27  1  0
  6 28  1  0
  7 29  1  0
 10 30  1  0
 10 31  1  0
 11 32  1  0
 11 33  1  0
 12 34  1  0
 12 35  1  0
 13 36  1  0
 13 37  1  0
 14 38  1  0
 15 39  1  0
 16 40  1  0
 17 41  1  0
 17 42  1  0
 17 43  1  0
 18 44  1  0
 18 45  1  0
 18 46  1  0
 19 47  1  0
 20 48  1  0
 22 49  1  0
M  END
$$$$
