
     RDKit          3D

 41 42  0  0  0  0  0  0  0  0999 V2000
   -4.9020   -1.8923    0.9367 C   0  0  0  0  0  0  0  0  0  0  0  0
   -4.1377   -1.6182   -0.2299 O   0  0  0  0  0  0  0  0  0  0  0  0
   -2.7991   -1.3769   -0.0661 C   0  0  0  0  0  0  0  0  0  0  0  0
   -2.1008   -0.9582   -1.2135 C   0  0  0  0  0  0  0  0  0  0  0  0
   -0.7219   -0.6858   -1.1219 C   0  0  0  0  0  0  0  0  0  0  0  0
   -0.0260   -0.8387    0.0845 C   0  0  0  0  0  0  0  0  0  0  0  0
   -0.7368   -1.2654    1.2122 C   0  0  0  0  0  0  0  0  0  0  0  0
   -2.1080   -1.5324    1.1390 C   0  0  0  0  0  0  0  0  0  0  0  0
    1.4138   -0.5635    0.1634 C   0  0  0  0  0  0  0  0  0  0  0  0
    2.3755   -1.5827    0.2586 C   0  0  0  0  0  0  0  0  0  0  0  0
    3.7335   -1.2883    0.3573 C   0  0  0  0  0  0  0  0  0  0  0  0
    4.1613    0.0385    0.3520 C   0  0  0  0  0  0  0  0  0  0  0  0
    3.2329    1.0812    0.2421 C   0  0  0  0  0  0  0  0  0  0  0  0
    1.8658    0.7690    0.1557 C   0  0  0  0  0  0  0  0  0  0  0  0
    3.6939    2.5194    0.2520 C   0  0  0  0  0  0  0  0  0  0  0  0
    3.9102    3.0386    1.6452 C   0  0  0  0  0  0  0  0  0  0  0  0
    5.0768    3.5114    2.1038 C   0  0  0  0  0  0  0  0  0  0  0  0
    2.0472   -2.9127    0.2529 O   0  0  0  0  0  0  0  0  0  0  0  0
   -2.8017   -0.7543   -2.5401 C   0  0  0  0  0  0  0  0  0  0  0  0
   -3.3010    0.6538   -2.7152 C   0  0  0  0  0  0  0  0  0  0  0  0
   -4.5919    0.9830   -2.8549 C   0  0  0  0  0  0  0  0  0  0  0  0
   -4.8329   -1.0724    1.6594 H   0  0  0  0  0  0  0  0  0  0  0  0
   -4.6032   -2.8446    1.3868 H   0  0  0  0  0  0  0  0  0  0  0  0
   -5.9501   -1.9821    0.6355 H   0  0  0  0  0  0  0  0  0  0  0  0
   -0.1834   -0.3517   -2.0083 H   0  0  0  0  0  0  0  0  0  0  0  0
   -0.2230   -1.3879    2.1647 H   0  0  0  0  0  0  0  0  0  0  0  0
   -2.6057   -1.8610    2.0454 H   0  0  0  0  0  0  0  0  0  0  0  0
    4.4577   -2.0943    0.4369 H   0  0  0  0  0  0  0  0  0  0  0  0
    5.2238    0.2558    0.4368 H   0  0  0  0  0  0  0  0  0  0  0  0
    1.1372    1.5764    0.0910 H   0  0  0  0  0  0  0  0  0  0  0  0
    2.9473    3.1496   -0.2472 H   0  0  0  0  0  0  0  0  0  0  0  0
    4.6067    2.6067   -0.3513 H   0  0  0  0  0  0  0  0  0  0  0  0
    3.0494    3.0260    2.3109 H   0  0  0  0  0  0  0  0  0  0  0  0
    5.1657    3.8725    3.1240 H   0  0  0  0  0  0  0  0  0  0  0  0
    5.9648    3.5461    1.4805 H   0  0  0  0  0  0  0  0  0  0  0  0
    1.0941   -2.9926    0.0763 H   0  0  0  0  0  0  0  0  0  0  0  0
   -2.1020   -0.9789   -3.3558 H   0  0  0  0  0  0  0  0  0  0  0  0
   -3.6128   -1.4838   -2.6560 H   0  0  0  0  0  0  0  0  0  0  0  0
   -2.5516    1.4418   -2.7335 H   0  0  0  0  0  0  0  0  0  0  0  0
   -4.8920    2.0187   -2.9782 H   0  0  0  0  0  0  0  0  0  0  0  0
   -5.3742    0.2303   -2.8363 H   0  0  0  0  0  0  0  0  0  0  0  0
  1  2  1  0
  2  3  1  0
  3  4  2  0
  4  5  1  0
  5  6  2  0
  6  7  1  0
  7  8  2  0
  6  9  1  0
  9 10  2  0
 10 11  1  0
 11 12  2  0
 12 13  1  0
 13 14  2  0
 13 15  1  0
 15 16  1  0
 16 17  2  3
 10 18  1  0
  4 19  1  0
 19 20  1  0
 20 21  2  3
  8  3  1  0
 14  9  1  0
  1 22  1  0
  1 23  1  0
  1 24  1  0
  5 25  1  0
  7 26  1  0
  8 27  1  0
 11 28  1  0
 12 29  1  0
 14 30  1  0
 15 31  1  0
 15 32  1  0
 16 33  1  0
 17 34  1  0
 17 35  1  0
 18 36  1  0
 19 37  1  0
 19 38  1  0
 20 39  1  0
 21 40  1  0
 21 41  1  0
M  END
$$$$
