
     RDKit          3D

 41 42  0  0  0  0  0  0  0  0999 V2000
    4.0990   -1.3592    0.5960 C   0  0  0  0  0  0  0  0  0  0  0  0
    5.4798   -1.1201    0.6590 C   0  0  0  0  0  0  0  0  0  0  0  0
    5.9353    0.1920    0.6985 C   0  0  0  0  0  0  0  0  0  0  0  0
    5.0603    1.2674    0.6797 C   0  0  0  0  0  0  0  0  0  0  0  0
    3.6843    1.0278    0.6278 C   0  0  0  0  0  0  0  0  0  0  0  0
    3.1910   -0.2909    0.5843 C   0  0  0  0  0  0  0  0  0  0  0  0
    1.7070   -0.5455    0.4929 C   0  0  0  0  0  0  0  0  0  0  0  0
    1.1707   -0.3645   -0.9326 C   0  0  0  0  0  0  0  0  0  0  0  0
   -0.2250   -0.6580   -1.0252 O   0  0  0  0  0  0  0  0  0  0  0  0
   -1.0656    0.3822   -0.5206 C   0  0  1  0  0  0  0  0  0  0  0  0
   -1.9023    0.9472   -1.7044 C   0  0  1  0  0  0  0  0  0  0  0  0
   -3.2386    0.1992   -1.8390 C   0  0  2  0  0  0  0  0  0  0  0  0
   -4.0160    0.1251   -0.5072 C   0  0  1  0  0  0  0  0  0  0  0  0
   -3.1155    0.4181    0.7080 C   0  0  2  0  0  0  0  0  0  0  0  0
   -1.8359   -0.1981    0.5320 O   0  0  0  0  0  0  0  0  0  0  0  0
   -3.7611   -0.1106    2.0035 C   0  0  0  0  0  0  0  0  0  0  0  0
   -5.0367    0.4572    2.2784 O   0  0  0  0  0  0  0  0  0  0  0  0
   -5.1198    1.0497   -0.4652 O   0  0  0  0  0  0  0  0  0  0  0  0
   -3.0217   -1.1264   -2.3498 O   0  0  0  0  0  0  0  0  0  0  0  0
   -2.1822    2.3437   -1.5301 O   0  0  0  0  0  0  0  0  0  0  0  0
    7.2733    0.4436    0.7485 O   0  0  0  0  0  0  0  0  0  0  0  0
    3.7487   -2.3843    0.5487 H   0  0  0  0  0  0  0  0  0  0  0  0
    6.1759   -1.9515    0.6547 H   0  0  0  0  0  0  0  0  0  0  0  0
    5.4394    2.2857    0.7062 H   0  0  0  0  0  0  0  0  0  0  0  0
    3.0035    1.8717    0.6172 H   0  0  0  0  0  0  0  0  0  0  0  0
    1.1768    0.1145    1.1922 H   0  0  0  0  0  0  0  0  0  0  0  0
    1.4650   -1.5573    0.8453 H   0  0  0  0  0  0  0  0  0  0  0  0
    1.3686    0.6394   -1.3270 H   0  0  0  0  0  0  0  0  0  0  0  0
    1.6898   -1.0710   -1.5989 H   0  0  0  0  0  0  0  0  0  0  0  0
   -0.4783    1.1903   -0.0677 H   0  0  0  0  0  0  0  0  0  0  0  0
   -1.3252    0.8526   -2.6288 H   0  0  0  0  0  0  0  0  0  0  0  0
   -3.8527    0.7147   -2.5880 H   0  0  0  0  0  0  0  0  0  0  0  0
   -4.4551   -0.8772   -0.4110 H   0  0  0  0  0  0  0  0  0  0  0  0
   -2.9870    1.5029    0.8350 H   0  0  0  0  0  0  0  0  0  0  0  0
   -3.8693   -1.1992    1.9603 H   0  0  0  0  0  0  0  0  0  0  0  0
   -3.1057    0.1017    2.8577 H   0  0  0  0  0  0  0  0  0  0  0  0
   -5.3114    0.9860    1.4938 H   0  0  0  0  0  0  0  0  0  0  0  0
   -5.6398    0.9069   -1.2774 H   0  0  0  0  0  0  0  0  0  0  0  0
   -2.3428   -1.5598   -1.7883 H   0  0  0  0  0  0  0  0  0  0  0  0
   -1.3354    2.8189   -1.4069 H   0  0  0  0  0  0  0  0  0  0  0  0
    7.5544    0.1723    1.6484 H   0  0  0  0  0  0  0  0  0  0  0  0
  1  2  2  0
  2  3  1  0
  3  4  2  0
  4  5  1  0
  5  6  2  0
  6  7  1  0
  7  8  1  0
  8  9  1  0
  9 10  1  0
 10 11  1  0
 11 12  1  0
 12 13  1  0
 13 14  1  0
 14 15  1  0
 14 16  1  0
 16 17  1  0
 13 18  1  0
 12 19  1  0
 11 20  1  0
  3 21  1  0
  6  1  1  0
 15 10  1  0
  1 22  1  0
  2 23  1  0
  4 24  1  0
  5 25  1  0
  7 26  1  0
  7 27  1  0
  8 28  1  0
  8 29  1  0
 10 30  1  1
 11 31  1  6
 12 32  1  6
 13 33  1  1
 14 34  1  1
 16 35  1  0
 16 36  1  0
 17 37  1  0
 18 38  1  0
 19 39  1  0
 20 40  1  0
 21 41  1  0
M  END
$$$$
