
     RDKit          3D

 48 50  0  0  0  0  0  0  0  0999 V2000
    0.7786   -2.5528    1.0460 C   0  0  0  0  0  0  0  0  0  0  0  0
    0.7354   -1.7007   -0.2247 C   0  0  0  0  0  0  0  0  0  0  0  0
    2.0351   -0.8925   -0.3143 C   0  0  0  0  0  0  0  0  0  0  0  0
    3.1457   -1.3841   -0.1375 O   0  0  0  0  0  0  0  0  0  0  0  0
    1.7420    0.4099   -0.6655 N   0  0  0  0  0  0  0  0  0  0  0  0
    0.3594    0.5921   -0.6938 C   0  0  0  0  0  0  0  0  0  0  0  0
   -0.4741    1.9015   -1.3415 S   0  0  0  0  0  0  0  0  0  0  0  0
   -0.2412   -0.6105   -0.2156 N   0  0  0  0  0  0  0  0  0  0  0  0
   -1.5837   -0.7606    0.2538 C   0  0  0  0  0  0  0  0  0  0  0  0
   -2.2209    0.2796    0.9440 C   0  0  0  0  0  0  0  0  0  0  0  0
   -3.5247    0.1391    1.4304 C   0  0  0  0  0  0  0  0  0  0  0  0
   -4.2346   -1.0446    1.2580 C   0  0  0  0  0  0  0  0  0  0  0  0
   -3.6019   -2.0975    0.5892 C   0  0  0  0  0  0  0  0  0  0  0  0
   -2.2932   -1.9574    0.1023 C   0  0  0  0  0  0  0  0  0  0  0  0
   -5.6231   -1.2512    1.7564 C   0  0  0  0  0  0  0  0  0  0  0  0
   -6.1837   -2.3252    1.5603 O   0  0  0  0  0  0  0  0  0  0  0  0
   -6.2241   -0.2063    2.4223 N   0  0  0  0  0  0  0  0  0  0  0  0
   -7.5938   -0.2840    2.8626 C   0  0  0  0  0  0  0  0  0  0  0  0
   -4.0630    1.1824    2.0815 F   0  0  0  0  0  0  0  0  0  0  0  0
    2.7636    1.3813   -0.8955 C   0  0  0  0  0  0  0  0  0  0  0  0
    3.9774    1.0119   -1.5009 C   0  0  0  0  0  0  0  0  0  0  0  0
    5.0148    1.9418   -1.7318 C   0  0  0  0  0  0  0  0  0  0  0  0
    4.8343    3.2742   -1.3327 C   0  0  0  0  0  0  0  0  0  0  0  0
    3.6375    3.6517   -0.7150 C   0  0  0  0  0  0  0  0  0  0  0  0
    2.6194    2.7154   -0.4970 C   0  0  0  0  0  0  0  0  0  0  0  0
    5.8513    4.2694   -1.5324 C   0  0  0  0  0  0  0  0  0  0  0  0
    6.6672    5.0783   -1.6882 N   0  0  0  0  0  0  0  0  0  0  0  0
    6.2949    1.4990   -2.3991 C   0  0  0  0  0  0  0  0  0  0  0  0
    7.3826    1.6706   -1.6026 F   0  0  0  0  0  0  0  0  0  0  0  0
    6.5433    2.1840   -3.5472 F   0  0  0  0  0  0  0  0  0  0  0  0
    6.2945    0.1832   -2.7502 F   0  0  0  0  0  0  0  0  0  0  0  0
    0.6842   -2.5470   -1.5054 C   0  0  0  0  0  0  0  0  0  0  0  0
    0.8509   -1.9228    1.9403 H   0  0  0  0  0  0  0  0  0  0  0  0
   -0.1070   -3.1847    1.1546 H   0  0  0  0  0  0  0  0  0  0  0  0
    1.6485   -3.2198    1.0468 H   0  0  0  0  0  0  0  0  0  0  0  0
   -1.7151    1.2148    1.1628 H   0  0  0  0  0  0  0  0  0  0  0  0
   -4.1264   -3.0407    0.4376 H   0  0  0  0  0  0  0  0  0  0  0  0
   -1.8763   -2.8100   -0.4198 H   0  0  0  0  0  0  0  0  0  0  0  0
   -5.7540    0.6910    2.4720 H   0  0  0  0  0  0  0  0  0  0  0  0
   -7.7558    0.4750    3.6313 H   0  0  0  0  0  0  0  0  0  0  0  0
   -8.2463   -0.0895    2.0073 H   0  0  0  0  0  0  0  0  0  0  0  0
   -7.8093   -1.2767    3.2669 H   0  0  0  0  0  0  0  0  0  0  0  0
    4.1292   -0.0164   -1.8321 H   0  0  0  0  0  0  0  0  0  0  0  0
    3.4874    4.6802   -0.3863 H   0  0  0  0  0  0  0  0  0  0  0  0
    1.7344    3.0564    0.0346 H   0  0  0  0  0  0  0  0  0  0  0  0
   -0.1904   -3.1988   -1.5457 H   0  0  0  0  0  0  0  0  0  0  0  0
    1.5675   -3.1924   -1.5838 H   0  0  0  0  0  0  0  0  0  0  0  0
    0.6637   -1.9167   -2.4025 H   0  0  0  0  0  0  0  0  0  0  0  0
  1  2  1  0
  2  3  1  0
  3  4  2  0
  3  5  1  0
  5  6  1  0
  6  7  2  0
  6  8  1  0
  8  9  1  0
  9 10  2  0
 10 11  1  0
 11 12  2  0
 12 13  1  0
 13 14  2  0
 12 15  1  0
 15 16  2  0
 15 17  1  0
 17 18  1  0
 11 19  1  0
  5 20  1  0
 20 21  2  0
 21 22  1  0
 22 23  2  0
 23 24  1  0
 24 25  2  0
 23 26  1  0
 26 27  3  0
 22 28  1  0
 28 29  1  0
 28 30  1  0
 28 31  1  0
  2 32  1  0
  8  2  1  0
 14  9  1  0
 25 20  1  0
  1 33  1  0
  1 34  1  0
  1 35  1  0
 10 36  1  0
 13 37  1  0
 14 38  1  0
 17 39  1  0
 18 40  1  0
 18 41  1  0
 18 42  1  0
 21 43  1  0
 24 44  1  0
 25 45  1  0
 32 46  1  0
 32 47  1  0
 32 48  1  0
M  END
$$$$
