
     RDKit          3D

 42 45  0  0  0  0  0  0  0  0999 V2000
    5.4712   -1.2086   -0.1460 C   0  0  0  0  0  0  0  0  0  0  0  0
    4.7457    0.0607    0.2863 C   0  0  1  0  0  0  0  0  0  0  0  0
    4.6339    1.0836   -0.8582 C   0  0  0  0  0  0  0  0  0  0  0  0
    3.2828    1.0512   -1.3863 O   0  0  0  0  0  0  0  0  0  0  0  0
    2.5714    0.3927   -0.3938 C   0  0  0  0  0  0  0  0  0  0  0  0
    3.3123   -0.1694    0.5471 C   0  0  0  0  0  0  0  0  0  0  0  0
    2.7068   -0.8667    1.6714 C   0  0  0  0  0  0  0  0  0  0  0  0
    3.3692   -1.2337    2.6295 O   0  0  0  0  0  0  0  0  0  0  0  0
    1.2024   -1.1209    1.5805 C   0  0  0  0  0  0  0  0  0  0  0  0
    0.7165   -1.9842    2.2981 O   0  0  0  0  0  0  0  0  0  0  0  0
    0.3980   -0.3396    0.5796 C   0  0  0  0  0  0  0  0  0  0  0  0
    1.1130    0.3662   -0.4110 C   0  0  0  0  0  0  0  0  0  0  0  0
    0.4110    1.0504   -1.4024 C   0  0  0  0  0  0  0  0  0  0  0  0
   -0.9814    1.0299   -1.4234 C   0  0  0  0  0  0  0  0  0  0  0  0
   -1.7250    0.3360   -0.4504 C   0  0  0  0  0  0  0  0  0  0  0  0
   -1.0269   -0.3273    0.5922 C   0  0  0  0  0  0  0  0  0  0  0  0
   -1.7904   -1.0347    1.6945 C   0  0  0  0  0  0  0  0  0  0  0  0
   -3.2586   -0.6467    1.8002 C   0  0  0  0  0  0  0  0  0  0  0  0
   -3.8983   -0.6819    0.4259 C   0  0  0  0  0  0  0  0  0  0  0  0
   -3.2617    0.3538   -0.5303 C   0  0  0  0  0  0  0  0  0  0  0  0
   -3.7633    1.7709   -0.1738 C   0  0  0  0  0  0  0  0  0  0  0  0
   -3.7614    0.0033   -1.9519 C   0  0  0  0  0  0  0  0  0  0  0  0
    4.9909   -1.6788   -1.0117 H   0  0  0  0  0  0  0  0  0  0  0  0
    5.4914   -1.9434    0.6660 H   0  0  0  0  0  0  0  0  0  0  0  0
    6.5074   -0.9831   -0.4195 H   0  0  0  0  0  0  0  0  0  0  0  0
    5.2618    0.5064    1.1433 H   0  0  0  0  0  0  0  0  0  0  0  0
    5.3366    0.8921   -1.6762 H   0  0  0  0  0  0  0  0  0  0  0  0
    4.8153    2.1004   -0.4875 H   0  0  0  0  0  0  0  0  0  0  0  0
    0.9393    1.6057   -2.1755 H   0  0  0  0  0  0  0  0  0  0  0  0
   -1.4826    1.5813   -2.2168 H   0  0  0  0  0  0  0  0  0  0  0  0
   -1.7224   -2.1155    1.5189 H   0  0  0  0  0  0  0  0  0  0  0  0
   -1.3383   -0.8080    2.6667 H   0  0  0  0  0  0  0  0  0  0  0  0
   -3.3575    0.3483    2.2485 H   0  0  0  0  0  0  0  0  0  0  0  0
   -3.7722   -1.3443    2.4719 H   0  0  0  0  0  0  0  0  0  0  0  0
   -3.7862   -1.6951    0.0151 H   0  0  0  0  0  0  0  0  0  0  0  0
   -4.9774   -0.5056    0.5181 H   0  0  0  0  0  0  0  0  0  0  0  0
   -3.4280    2.5140   -0.9069 H   0  0  0  0  0  0  0  0  0  0  0  0
   -3.3969    2.1014    0.8042 H   0  0  0  0  0  0  0  0  0  0  0  0
   -4.8584    1.8085   -0.1525 H   0  0  0  0  0  0  0  0  0  0  0  0
   -3.4863    0.7618   -2.6921 H   0  0  0  0  0  0  0  0  0  0  0  0
   -4.8548   -0.0770   -1.9738 H   0  0  0  0  0  0  0  0  0  0  0  0
   -3.3489   -0.9541   -2.2917 H   0  0  0  0  0  0  0  0  0  0  0  0
  1  2  1  0
  2  3  1  0
  3  4  1  0
  4  5  1  0
  5  6  2  0
  6  7  1  0
  7  8  2  0
  7  9  1  0
  9 10  2  0
  9 11  1  0
 11 12  2  0
 12 13  1  0
 13 14  2  0
 14 15  1  0
 15 16  2  0
 16 17  1  0
 17 18  1  0
 18 19  1  0
 19 20  1  0
 20 21  1  0
 20 22  1  0
  6  2  1  0
 12  5  1  0
 16 11  1  0
 20 15  1  0
  1 23  1  0
  1 24  1  0
  1 25  1  0
  2 26  1  1
  3 27  1  0
  3 28  1  0
 13 29  1  0
 14 30  1  0
 17 31  1  0
 17 32  1  0
 18 33  1  0
 18 34  1  0
 19 35  1  0
 19 36  1  0
 21 37  1  0
 21 38  1  0
 21 39  1  0
 22 40  1  0
 22 41  1  0
 22 42  1  0
M  END
$$$$
