
     RDKit          3D

 49 52  0  0  0  0  0  0  0  0999 V2000
   -2.5295   -1.5961   -0.8977 C   0  0  0  0  0  0  0  0  0  0  0  0
   -2.4562   -0.6791    0.3507 C   0  0  0  0  0  0  0  0  0  0  0  0
   -1.6639   -1.3791    1.4634 C   0  0  0  0  0  0  0  0  0  0  0  0
   -0.1777   -1.5338    1.0921 C   0  0  0  0  0  0  0  0  0  0  0  0
    0.4950   -0.2019    0.6596 C   0  0  0  0  0  0  0  0  0  0  0  0
   -0.3481    0.5543   -0.4151 C   0  0  0  0  0  0  0  0  0  0  0  0
    0.2735    1.9273   -0.7013 C   0  0  0  0  0  0  0  0  0  0  0  0
    1.7155    1.7918   -1.1728 C   0  0  0  0  0  0  0  0  0  0  0  0
    2.5603    1.0059   -0.1979 C   0  0  0  0  0  0  0  0  0  0  0  0
    3.7415    1.5053    0.2082 C   0  0  0  0  0  0  0  0  0  0  0  0
    4.6660    0.7274    1.0641 C   0  0  0  0  0  0  0  0  0  0  0  0
    5.7189    1.2386    1.4369 O   0  0  0  0  0  0  0  0  0  0  0  0
    4.3113   -0.7031    1.3702 C   0  0  0  0  0  0  0  0  0  0  0  0
    2.8029   -0.8618    1.4952 C   0  0  0  0  0  0  0  0  0  0  0  0
    2.0113   -0.3548    0.2529 C   0  0  0  0  0  0  0  0  0  0  0  0
    2.2016   -1.3587   -0.9063 C   0  0  0  0  0  0  0  0  0  0  0  0
   -1.7900    0.6871    0.0900 C   0  0  0  0  0  0  0  0  0  0  0  0
   -2.8077    1.4227   -0.7753 C   0  0  0  0  0  0  0  0  0  0  0  0
   -4.1748    0.9511   -0.2428 C   0  0  0  0  0  0  0  0  0  0  0  0
   -3.8950   -0.2391    0.6998 C   0  0  0  0  0  0  0  0  0  0  0  0
   -4.0211    0.1814    2.0545 O   0  0  0  0  0  0  0  0  0  0  0  0
   -3.0315   -2.5375   -0.6443 H   0  0  0  0  0  0  0  0  0  0  0  0
   -3.0963   -1.1445   -1.7181 H   0  0  0  0  0  0  0  0  0  0  0  0
   -1.5458   -1.8551   -1.2973 H   0  0  0  0  0  0  0  0  0  0  0  0
   -2.0939   -2.3647    1.6787 H   0  0  0  0  0  0  0  0  0  0  0  0
   -1.7215   -0.8056    2.3970 H   0  0  0  0  0  0  0  0  0  0  0  0
   -0.0840   -2.2827    0.2999 H   0  0  0  0  0  0  0  0  0  0  0  0
    0.3393   -1.9464    1.9656 H   0  0  0  0  0  0  0  0  0  0  0  0
    0.4782    0.4387    1.5567 H   0  0  0  0  0  0  0  0  0  0  0  0
   -0.3461   -0.0120   -1.3529 H   0  0  0  0  0  0  0  0  0  0  0  0
    0.2363    2.5544    0.1990 H   0  0  0  0  0  0  0  0  0  0  0  0
   -0.3012    2.4488   -1.4755 H   0  0  0  0  0  0  0  0  0  0  0  0
    1.7371    1.2888   -2.1475 H   0  0  0  0  0  0  0  0  0  0  0  0
    2.1274    2.7953   -1.3360 H   0  0  0  0  0  0  0  0  0  0  0  0
    4.1120    2.4741   -0.1091 H   0  0  0  0  0  0  0  0  0  0  0  0
    4.7234   -1.3437    0.5843 H   0  0  0  0  0  0  0  0  0  0  0  0
    4.7815   -0.9820    2.3197 H   0  0  0  0  0  0  0  0  0  0  0  0
    2.5813   -1.9178    1.6907 H   0  0  0  0  0  0  0  0  0  0  0  0
    2.4778   -0.3064    2.3862 H   0  0  0  0  0  0  0  0  0  0  0  0
    1.5601   -1.1299   -1.7629 H   0  0  0  0  0  0  0  0  0  0  0  0
    3.2343   -1.3570   -1.2744 H   0  0  0  0  0  0  0  0  0  0  0  0
    1.9780   -2.3839   -0.5931 H   0  0  0  0  0  0  0  0  0  0  0  0
   -1.7366    1.2434    1.0393 H   0  0  0  0  0  0  0  0  0  0  0  0
   -2.6984    1.1620   -1.8340 H   0  0  0  0  0  0  0  0  0  0  0  0
   -2.7063    2.5097   -0.6925 H   0  0  0  0  0  0  0  0  0  0  0  0
   -4.7988    0.6374   -1.0871 H   0  0  0  0  0  0  0  0  0  0  0  0
   -4.6932    1.7662    0.2737 H   0  0  0  0  0  0  0  0  0  0  0  0
   -4.6252   -1.0409    0.5502 H   0  0  0  0  0  0  0  0  0  0  0  0
   -3.5219    1.0057    2.1762 H   0  0  0  0  0  0  0  0  0  0  0  0
  1  2  1  0
  2  3  1  0
  3  4  1  0
  4  5  1  0
  5  6  1  0
  6  7  1  0
  7  8  1  0
  8  9  1  0
  9 10  2  0
 10 11  1  0
 11 12  2  0
 11 13  1  0
 13 14  1  0
 14 15  1  0
 15 16  1  0
  6 17  1  0
 17 18  1  0
 18 19  1  0
 19 20  1  0
 20 21  1  0
 17  2  1  0
 20  2  1  0
 15  5  1  0
 15  9  1  0
  1 22  1  0
  1 23  1  0
  1 24  1  0
  3 25  1  0
  3 26  1  0
  4 27  1  0
  4 28  1  0
  5 29  1  0
  6 30  1  0
  7 31  1  0
  7 32  1  0
  8 33  1  0
  8 34  1  0
 10 35  1  0
 13 36  1  0
 13 37  1  0
 14 38  1  0
 14 39  1  0
 16 40  1  0
 16 41  1  0
 16 42  1  0
 17 43  1  0
 18 44  1  0
 18 45  1  0
 19 46  1  0
 19 47  1  0
 20 48  1  0
 21 49  1  0
M  END
$$$$
