
     RDKit          3D

 83 88  0  0  0  0  0  0  0  0999 V2000
  -11.0118   -1.2292   -2.6752 C   0  0  0  0  0  0  0  0  0  0  0  0
  -11.1903   -1.0488   -1.2379 N   0  0  0  0  0  0  0  0  0  0  0  0
  -10.4728   -2.0755   -0.4570 C   0  0  0  0  0  0  0  0  0  0  0  0
   -9.1416   -1.5933    0.1662 C   0  0  0  0  0  0  0  0  0  0  0  0
   -9.3198   -0.4498    1.0778 N   0  0  0  0  0  0  0  0  0  0  0  0
  -10.4384    0.4195    0.6635 C   0  0  0  0  0  0  0  0  0  0  0  0
  -10.7991    0.3143   -0.8327 C   0  0  0  0  0  0  0  0  0  0  0  0
   -8.0928    0.2829    1.4389 C   0  0  0  0  0  0  0  0  0  0  0  0
   -7.0731   -0.6356    2.1340 C   0  0  0  0  0  0  0  0  0  0  0  0
   -5.8486    0.1473    2.5981 C   0  0  0  0  0  0  0  0  0  0  0  0
   -5.2553    0.9142    1.5016 N   0  0  0  0  0  0  0  0  0  0  0  0
   -6.1797    1.7937    0.7868 C   0  0  0  0  0  0  0  0  0  0  0  0
   -7.4053    1.0334    0.2827 C   0  0  0  0  0  0  0  0  0  0  0  0
   -3.9050    0.9478    1.1566 C   0  0  0  0  0  0  0  0  0  0  0  0
   -3.5089    1.5754    0.1748 O   0  0  0  0  0  0  0  0  0  0  0  0
   -3.0783    0.2437    1.9869 N   0  0  0  0  0  0  0  0  0  0  0  0
   -1.7346   -0.0793    1.7866 C   0  0  0  0  0  0  0  0  0  0  0  0
   -1.1285   -0.5550    2.8976 N   0  0  0  0  0  0  0  0  0  0  0  0
    0.1615   -0.9375    2.7922 C   0  0  0  0  0  0  0  0  0  0  0  0
    0.8874   -0.8777    1.6183 C   0  0  0  0  0  0  0  0  0  0  0  0
    0.2463   -0.3771    0.4917 C   0  0  0  0  0  0  0  0  0  0  0  0
   -1.0879    0.0148    0.5655 C   0  0  0  0  0  0  0  0  0  0  0  0
    0.8373   -0.3070   -0.7512 O   0  0  0  0  0  0  0  0  0  0  0  0
    2.1661    0.0359   -0.7954 C   0  0  0  0  0  0  0  0  0  0  0  0
    3.0460   -0.8573   -1.3962 C   0  0  0  0  0  0  0  0  0  0  0  0
    4.3936   -0.5268   -1.4619 C   0  0  0  0  0  0  0  0  0  0  0  0
    4.8839    0.6875   -0.9571 C   0  0  0  0  0  0  0  0  0  0  0  0
    3.9814    1.5894   -0.3929 C   0  0  0  0  0  0  0  0  0  0  0  0
    2.6213    1.2646   -0.3173 C   0  0  0  0  0  0  0  0  0  0  0  0
    6.2713    0.9076   -1.0627 N   0  0  0  0  0  0  0  0  0  0  0  0
    7.0082    1.9702   -0.5907 C   0  0  0  0  0  0  0  0  0  0  0  0
    6.5662    2.9513   -0.0039 O   0  0  0  0  0  0  0  0  0  0  0  0
    8.5005    1.9072   -0.9247 C   0  0  0  0  0  0  0  0  0  0  0  0
    9.2725    3.2291   -0.7466 C   0  0  0  0  0  0  0  0  0  0  0  0
    8.9358    2.7590   -2.1272 C   0  0  0  0  0  0  0  0  0  0  0  0
    9.1986    0.5609   -0.7618 C   0  0  0  0  0  0  0  0  0  0  0  0
    8.5033   -0.4464   -0.7230 O   0  0  0  0  0  0  0  0  0  0  0  0
   10.5827    0.5720   -0.7352 N   0  0  0  0  0  0  0  0  0  0  0  0
   11.4459   -0.5356   -0.5835 C   0  0  0  0  0  0  0  0  0  0  0  0
   12.8226   -0.2914   -0.7089 C   0  0  0  0  0  0  0  0  0  0  0  0
   13.7463   -1.3302   -0.5668 C   0  0  0  0  0  0  0  0  0  0  0  0
   13.2940   -2.6148   -0.2976 C   0  0  0  0  0  0  0  0  0  0  0  0
   11.9376   -2.8781   -0.1695 C   0  0  0  0  0  0  0  0  0  0  0  0
   11.0137   -1.8376   -0.3099 C   0  0  0  0  0  0  0  0  0  0  0  0
   14.1785   -3.6123   -0.1624 F   0  0  0  0  0  0  0  0  0  0  0  0
    5.2440   -1.4004   -2.0251 F   0  0  0  0  0  0  0  0  0  0  0  0
  -11.5768   -0.4723   -3.2331 H   0  0  0  0  0  0  0  0  0  0  0  0
   -9.9580   -1.1641   -2.9710 H   0  0  0  0  0  0  0  0  0  0  0  0
  -11.4008   -2.2037   -2.9896 H   0  0  0  0  0  0  0  0  0  0  0  0
  -11.1391   -2.3968    0.3558 H   0  0  0  0  0  0  0  0  0  0  0  0
  -10.2898   -2.9767   -1.0573 H   0  0  0  0  0  0  0  0  0  0  0  0
   -8.7041   -2.4304    0.7209 H   0  0  0  0  0  0  0  0  0  0  0  0
   -8.4573   -1.3513   -0.6538 H   0  0  0  0  0  0  0  0  0  0  0  0
  -10.2570    1.4701    0.9217 H   0  0  0  0  0  0  0  0  0  0  0  0
  -11.3176    0.1266    1.2522 H   0  0  0  0  0  0  0  0  0  0  0  0
   -9.9373    0.6599   -1.4206 H   0  0  0  0  0  0  0  0  0  0  0  0
  -11.6287    0.9967   -1.0487 H   0  0  0  0  0  0  0  0  0  0  0  0
   -8.3860    1.0321    2.1898 H   0  0  0  0  0  0  0  0  0  0  0  0
   -6.7377   -1.4261    1.4498 H   0  0  0  0  0  0  0  0  0  0  0  0
   -7.5358   -1.1258    2.9991 H   0  0  0  0  0  0  0  0  0  0  0  0
   -6.1195    0.8634    3.3810 H   0  0  0  0  0  0  0  0  0  0  0  0
   -5.1419   -0.5613    3.0345 H   0  0  0  0  0  0  0  0  0  0  0  0
   -6.4838    2.5814    1.4870 H   0  0  0  0  0  0  0  0  0  0  0  0
   -5.6929    2.2890   -0.0595 H   0  0  0  0  0  0  0  0  0  0  0  0
   -8.0931    1.7490   -0.1808 H   0  0  0  0  0  0  0  0  0  0  0  0
   -7.0865    0.3335   -0.4994 H   0  0  0  0  0  0  0  0  0  0  0  0
   -3.3449    0.1307    2.9499 H   0  0  0  0  0  0  0  0  0  0  0  0
    0.6100   -1.3111    3.7076 H   0  0  0  0  0  0  0  0  0  0  0  0
    1.9131   -1.2247    1.5961 H   0  0  0  0  0  0  0  0  0  0  0  0
   -1.5888    0.3699   -0.3252 H   0  0  0  0  0  0  0  0  0  0  0  0
    2.6971   -1.8001   -1.7996 H   0  0  0  0  0  0  0  0  0  0  0  0
    4.3000    2.5481    0.0005 H   0  0  0  0  0  0  0  0  0  0  0  0
    1.9240    1.9757    0.1161 H   0  0  0  0  0  0  0  0  0  0  0  0
    6.8066    0.1153   -1.4265 H   0  0  0  0  0  0  0  0  0  0  0  0
    8.7327    4.0943   -0.3665 H   0  0  0  0  0  0  0  0  0  0  0  0
   10.3030    3.2358   -0.4193 H   0  0  0  0  0  0  0  0  0  0  0  0
    9.7377    2.4004   -2.7605 H   0  0  0  0  0  0  0  0  0  0  0  0
    8.1672    3.3037   -2.6677 H   0  0  0  0  0  0  0  0  0  0  0  0
   11.0402    1.4550   -0.9003 H   0  0  0  0  0  0  0  0  0  0  0  0
   13.1949    0.7074   -0.9191 H   0  0  0  0  0  0  0  0  0  0  0  0
   14.8118   -1.1448   -0.6614 H   0  0  0  0  0  0  0  0  0  0  0  0
   11.6015   -3.8878    0.0425 H   0  0  0  0  0  0  0  0  0  0  0  0
    9.9632   -2.0807   -0.1899 H   0  0  0  0  0  0  0  0  0  0  0  0
  1  2  1  0
  2  3  1  0
  3  4  1  0
  4  5  1  0
  5  6  1  0
  6  7  1  0
  5  8  1  0
  8  9  1  0
  9 10  1  0
 10 11  1  0
 11 12  1  0
 12 13  1  0
 11 14  1  0
 14 15  2  0
 14 16  1  0
 16 17  1  0
 17 18  2  0
 18 19  1  0
 19 20  2  0
 20 21  1  0
 21 22  2  0
 21 23  1  0
 23 24  1  0
 24 25  2  0
 25 26  1  0
 26 27  2  0
 27 28  1  0
 28 29  2  0
 27 30  1  0
 30 31  1  0
 31 32  2  0
 31 33  1  0
 33 34  1  0
 34 35  1  0
 33 36  1  0
 36 37  2  0
 36 38  1  0
 38 39  1  0
 39 40  2  0
 40 41  1  0
 41 42  2  0
 42 43  1  0
 43 44  2  0
 42 45  1  0
 26 46  1  0
  7  2  1  0
 13  8  1  0
 22 17  1  0
 29 24  1  0
 35 33  1  0
 44 39  1  0
  1 47  1  0
  1 48  1  0
  1 49  1  0
  3 50  1  0
  3 51  1  0
  4 52  1  0
  4 53  1  0
  6 54  1  0
  6 55  1  0
  7 56  1  0
  7 57  1  0
  8 58  1  0
  9 59  1  0
  9 60  1  0
 10 61  1  0
 10 62  1  0
 12 63  1  0
 12 64  1  0
 13 65  1  0
 13 66  1  0
 16 67  1  0
 19 68  1  0
 20 69  1  0
 22 70  1  0
 25 71  1  0
 28 72  1  0
 29 73  1  0
 30 74  1  0
 34 75  1  0
 34 76  1  0
 35 77  1  0
 35 78  1  0
 38 79  1  0
 40 80  1  0
 41 81  1  0
 43 82  1  0
 44 83  1  0
M  END
$$$$
