
     RDKit          3D

106115  0  0  0  0  0  0  0  0999 V2000
   -1.3426    1.7382    0.0034 C   0  0  0  0  0  0  0  0  0  0  0  0
   -0.8312    0.7110    1.0317 C   0  0  0  0  0  0  0  0  0  0  0  0
    0.3066   -0.1185    0.4093 C   0  0  0  0  0  0  0  0  0  0  0  0
   -0.2565   -1.3365   -0.1988 O   0  0  0  0  0  0  0  0  0  0  0  0
    0.1152   -1.6335   -1.4814 C   0  0  0  0  0  0  0  0  0  0  0  0
    0.7377   -0.8710   -2.2181 O   0  0  0  0  0  0  0  0  0  0  0  0
   -0.2614   -3.0147   -1.8903 C   0  0  0  0  0  0  0  0  0  0  0  0
    0.8177   -3.7582   -2.4313 C   0  0  0  0  0  0  0  0  0  0  0  0
    0.6049   -5.0379   -2.8568 C   0  0  0  0  0  0  0  0  0  0  0  0
   -0.6483   -5.5742   -2.8330 C   0  0  0  0  0  0  0  0  0  0  0  0
   -1.7353   -4.8315   -2.3323 C   0  0  0  0  0  0  0  0  0  0  0  0
   -1.5635   -3.5528   -1.7959 C   0  0  0  0  0  0  0  0  0  0  0  0
   -2.6906   -2.8562   -1.1274 C   0  0  0  0  0  0  0  0  0  0  0  0
   -3.1669   -3.3277    0.1033 C   0  0  0  0  0  0  0  0  0  0  0  0
   -4.1715   -2.6662    0.7958 C   0  0  0  0  0  0  0  0  0  0  0  0
   -4.6519   -1.4486    0.3130 C   0  0  0  0  0  0  0  0  0  0  0  0
   -4.2242   -0.9670   -0.9178 C   0  0  0  0  0  0  0  0  0  0  0  0
   -3.3273   -1.7224   -1.6787 C   0  0  0  0  0  0  0  0  0  0  0  0
   -3.1272   -1.2708   -3.1022 C   0  0  0  0  0  0  0  0  0  0  0  0
   -2.5226   -1.9771   -3.9096 O   0  0  0  0  0  0  0  0  0  0  0  0
   -3.7086   -0.0524   -3.4964 O   0  0  0  0  0  0  0  0  0  0  0  0
   -4.2634    0.8046   -2.5717 C   0  0  0  0  0  0  0  0  0  0  0  0
   -4.4027    2.1571   -2.9242 C   0  0  0  0  0  0  0  0  0  0  0  0
   -4.6865    3.0592   -1.8996 C   0  0  0  0  0  0  0  0  0  0  0  0
   -5.0123    2.6347   -0.6018 C   0  0  0  0  0  0  0  0  0  0  0  0
   -5.1085    3.6713    0.4681 C   0  0  0  0  0  0  0  0  0  0  0  0
   -6.2997    4.3710    0.6535 C   0  0  0  0  0  0  0  0  0  0  0  0
   -6.3586    5.4738    1.5099 C   0  0  0  0  0  0  0  0  0  0  0  0
   -5.2501    5.8611    2.2334 C   0  0  0  0  0  0  0  0  0  0  0  0
   -4.0700    5.1078    2.1646 C   0  0  0  0  0  0  0  0  0  0  0  0
   -3.9845    4.0302    1.2689 C   0  0  0  0  0  0  0  0  0  0  0  0
   -2.6323    3.3301    1.2482 C   0  0  0  0  0  0  0  0  0  0  0  0
   -1.6684    3.6788    1.9406 O   0  0  0  0  0  0  0  0  0  0  0  0
   -2.6004    2.3244    0.3390 O   0  0  0  0  0  0  0  0  0  0  0  0
   -5.3223    6.9961    2.9756 O   0  0  0  0  0  0  0  0  0  0  0  0
   -7.5327    6.1756    1.6036 O   0  0  0  0  0  0  0  0  0  0  0  0
   -7.3932    4.0387   -0.0976 O   0  0  0  0  0  0  0  0  0  0  0  0
   -5.1024    1.2572   -0.3427 C   0  0  0  0  0  0  0  0  0  0  0  0
   -4.5932    0.3549   -1.3056 C   0  0  0  0  0  0  0  0  0  0  0  0
   -5.5922    0.6799    0.9625 C   0  0  0  0  0  0  0  0  0  0  0  0
   -6.1213    1.3788    1.8336 O   0  0  0  0  0  0  0  0  0  0  0  0
   -5.4656   -0.7066    1.1352 O   0  0  0  0  0  0  0  0  0  0  0  0
   -4.6169    4.3989   -2.1902 O   0  0  0  0  0  0  0  0  0  0  0  0
   -4.1590    2.6272   -4.1491 O   0  0  0  0  0  0  0  0  0  0  0  0
   -4.6249   -3.2101    1.9496 O   0  0  0  0  0  0  0  0  0  0  0  0
   -2.6783   -4.4928    0.6123 O   0  0  0  0  0  0  0  0  0  0  0  0
   -2.9904   -5.4181   -2.4050 O   0  0  0  0  0  0  0  0  0  0  0  0
   -0.8807   -6.8532   -3.2880 O   0  0  0  0  0  0  0  0  0  0  0  0
    1.6512   -5.7875   -3.3481 O   0  0  0  0  0  0  0  0  0  0  0  0
    1.4517   -0.5691    1.3579 C   0  0  0  0  0  0  0  0  0  0  0  0
    1.9149    0.5957    2.2619 C   0  0  0  0  0  0  0  0  0  0  0  0
    3.3494    0.7315    2.3537 O   0  0  0  0  0  0  0  0  0  0  0  0
    3.9589    1.3447    1.2816 C   0  0  0  0  0  0  0  0  0  0  0  0
    3.4317    1.9706    0.3859 O   0  0  0  0  0  0  0  0  0  0  0  0
    5.3838    1.2102    1.5505 C   0  0  0  0  0  0  0  0  0  0  0  0
    5.9014    2.1847    2.4222 C   0  0  0  0  0  0  0  0  0  0  0  0
    7.1869    2.0404    2.9156 C   0  0  0  0  0  0  0  0  0  0  0  0
    7.9542    0.9483    2.5288 C   0  0  0  0  0  0  0  0  0  0  0  0
    7.4469    0.0167    1.6167 C   0  0  0  0  0  0  0  0  0  0  0  0
    6.1498    0.1237    1.0813 C   0  0  0  0  0  0  0  0  0  0  0  0
    5.7274   -0.8264    0.0162 C   0  0  0  0  0  0  0  0  0  0  0  0
    6.5866   -0.9384   -1.1332 C   0  0  0  0  0  0  0  0  0  0  0  0
    6.4251   -1.9530   -2.0921 C   0  0  0  0  0  0  0  0  0  0  0  0
    5.4104   -2.8493   -1.9516 C   0  0  0  0  0  0  0  0  0  0  0  0
    4.4587   -2.6905   -0.9252 C   0  0  0  0  0  0  0  0  0  0  0  0
    4.6112   -1.6774    0.0569 C   0  0  0  0  0  0  0  0  0  0  0  0
    3.5773   -1.6659    1.0864 C   0  0  0  0  0  0  0  0  0  0  0  0
    3.6484   -2.1534    2.2049 O   0  0  0  0  0  0  0  0  0  0  0  0
    2.5463   -1.0016    0.5147 O   0  0  0  0  0  0  0  0  0  0  0  0
    5.2591   -3.8567   -2.8355 O   0  0  0  0  0  0  0  0  0  0  0  0
    7.3270   -2.0896   -3.1281 O   0  0  0  0  0  0  0  0  0  0  0  0
    7.6535   -0.1026   -1.3280 O   0  0  0  0  0  0  0  0  0  0  0  0
    8.2829   -1.0088    1.2425 O   0  0  0  0  0  0  0  0  0  0  0  0
    9.1811    0.7688    3.0485 O   0  0  0  0  0  0  0  0  0  0  0  0
    7.7057    2.9750    3.7637 O   0  0  0  0  0  0  0  0  0  0  0  0
    1.4489    0.2698    3.6586 C   0  0  0  0  0  0  0  0  0  0  0  0
    0.2778    0.0207    3.9657 O   0  0  0  0  0  0  0  0  0  0  0  0
   -1.9077   -0.1496    1.4737 O   0  0  0  0  0  0  0  0  0  0  0  0
   -0.5810    2.5245   -0.1084 H   0  0  0  0  0  0  0  0  0  0  0  0
   -1.4708    1.2702   -0.9836 H   0  0  0  0  0  0  0  0  0  0  0  0
   -0.5318    1.2794    1.9054 H   0  0  0  0  0  0  0  0  0  0  0  0
    0.8133    0.5169   -0.3342 H   0  0  0  0  0  0  0  0  0  0  0  0
    1.8197   -3.3067   -2.5178 H   0  0  0  0  0  0  0  0  0  0  0  0
   -3.2403    5.3764    2.7931 H   0  0  0  0  0  0  0  0  0  0  0  0
   -4.4187    7.3359    3.0742 H   0  0  0  0  0  0  0  0  0  0  0  0
   -7.2763    7.1248    1.5197 H   0  0  0  0  0  0  0  0  0  0  0  0
   -8.1462    4.0234    0.5445 H   0  0  0  0  0  0  0  0  0  0  0  0
   -4.5978    4.4635   -3.1701 H   0  0  0  0  0  0  0  0  0  0  0  0
   -4.6246    2.0200   -4.7779 H   0  0  0  0  0  0  0  0  0  0  0  0
   -5.4725   -2.7564    2.1585 H   0  0  0  0  0  0  0  0  0  0  0  0
   -3.1965   -4.6657    1.4303 H   0  0  0  0  0  0  0  0  0  0  0  0
   -3.6537   -4.7363   -2.6617 H   0  0  0  0  0  0  0  0  0  0  0  0
   -1.8269   -6.9960   -3.0840 H   0  0  0  0  0  0  0  0  0  0  0  0
    1.2542   -6.6663   -3.5385 H   0  0  0  0  0  0  0  0  0  0  0  0
    1.1348   -1.4538    1.9081 H   0  0  0  0  0  0  0  0  0  0  0  0
    1.4990    1.5731    1.9943 H   0  0  0  0  0  0  0  0  0  0  0  0
    5.2756    2.9951    2.7931 H   0  0  0  0  0  0  0  0  0  0  0  0
    3.6423   -3.4041   -0.8792 H   0  0  0  0  0  0  0  0  0  0  0  0
    5.9943   -3.7606   -3.4784 H   0  0  0  0  0  0  0  0  0  0  0  0
    7.7615   -1.2253   -3.2729 H   0  0  0  0  0  0  0  0  0  0  0  0
    7.2643    0.7787   -1.5602 H   0  0  0  0  0  0  0  0  0  0  0  0
    9.1316   -0.6227    0.9391 H   0  0  0  0  0  0  0  0  0  0  0  0
    9.3078   -0.2205    3.0606 H   0  0  0  0  0  0  0  0  0  0  0  0
    8.6350    2.7137    3.8821 H   0  0  0  0  0  0  0  0  0  0  0  0
    2.2485    0.2213    4.4258 H   0  0  0  0  0  0  0  0  0  0  0  0
   -1.6869   -0.4460    2.3824 H   0  0  0  0  0  0  0  0  0  0  0  0
  1  2  1  0
  2  3  1  0
  3  4  1  0
  4  5  1  0
  5  6  2  0
  5  7  1  0
  7  8  2  0
  8  9  1  0
  9 10  2  0
 10 11  1  0
 11 12  2  0
 12 13  1  0
 13 14  2  0
 14 15  1  0
 15 16  2  0
 16 17  1  0
 17 18  2  0
 18 19  1  0
 19 20  2  0
 19 21  1  0
 21 22  1  0
 22 23  2  0
 23 24  1  0
 24 25  2  0
 25 26  1  0
 26 27  2  0
 27 28  1  0
 28 29  2  0
 29 30  1  0
 30 31  2  0
 31 32  1  0
 32 33  2  0
 32 34  1  0
 29 35  1  0
 28 36  1  0
 27 37  1  0
 25 38  1  0
 38 39  2  0
 38 40  1  0
 40 41  2  0
 40 42  1  0
 24 43  1  0
 23 44  1  0
 15 45  1  0
 14 46  1  0
 11 47  1  0
 10 48  1  0
  9 49  1  0
  3 50  1  0
 50 51  1  0
 51 52  1  0
 52 53  1  0
 53 54  2  0
 53 55  1  0
 55 56  2  0
 56 57  1  0
 57 58  2  0
 58 59  1  0
 59 60  2  0
 60 61  1  0
 61 62  2  0
 62 63  1  0
 63 64  2  0
 64 65  1  0
 65 66  2  0
 66 67  1  0
 67 68  2  0
 67 69  1  0
 64 70  1  0
 63 71  1  0
 62 72  1  0
 59 73  1  0
 58 74  1  0
 57 75  1  0
 51 76  1  0
 76 77  2  0
  2 78  1  0
 34  1  1  0
 66 61  1  0
 12  7  1  0
 18 13  1  0
 42 16  1  0
 39 17  1  0
 39 22  1  0
 31 26  1  0
 69 50  1  0
 60 55  1  0
  1 79  1  0
  1 80  1  0
  2 81  1  0
  3 82  1  0
  8 83  1  0
 30 84  1  0
 35 85  1  0
 36 86  1  0
 37 87  1  0
 43 88  1  0
 44 89  1  0
 45 90  1  0
 46 91  1  0
 47 92  1  0
 48 93  1  0
 49 94  1  0
 50 95  1  0
 51 96  1  0
 56 97  1  0
 65 98  1  0
 70 99  1  0
 71100  1  0
 72101  1  0
 73102  1  0
 74103  1  0
 75104  1  0
 76105  1  0
 78106  1  0
M  END
$$$$
