
     RDKit          3D

 34 36  0  0  0  0  0  0  0  0999 V2000
   -1.4639    3.3434   -0.1664 C   0  0  0  0  0  0  0  0  0  0  0  0
   -1.1236    2.4937    1.0571 C   0  0  0  0  0  0  0  0  0  0  0  0
   -0.4446    1.2503    0.6828 N   0  0  0  0  0  0  0  0  0  0  0  0
   -1.2393    0.1156    0.3800 C   0  0  0  0  0  0  0  0  0  0  0  0
   -2.5739    0.2110    0.5410 N   0  0  0  0  0  0  0  0  0  0  0  0
   -3.3094   -0.8499    0.2173 C   0  0  0  0  0  0  0  0  0  0  0  0
   -2.8187   -1.9802   -0.2809 N   0  0  0  0  0  0  0  0  0  0  0  0
   -1.4802   -2.0819   -0.4103 C   0  0  0  0  0  0  0  0  0  0  0  0
   -0.6191   -1.0360   -0.0848 C   0  0  0  0  0  0  0  0  0  0  0  0
    0.8350   -1.0926   -0.1997 C   0  0  0  0  0  0  0  0  0  0  0  0
    1.6017   -0.0265    0.0807 C   0  0  0  0  0  0  0  0  0  0  0  0
    0.9338    1.2593    0.5143 C   0  0  0  0  0  0  0  0  0  0  0  0
    1.6176    2.2728    0.7023 O   0  0  0  0  0  0  0  0  0  0  0  0
    3.0156   -0.1218   -0.0558 C   0  0  0  0  0  0  0  0  0  0  0  0
    3.9128   -1.1204   -0.3859 C   0  0  0  0  0  0  0  0  0  0  0  0
    5.1896   -0.5189   -0.3286 C   0  0  0  0  0  0  0  0  0  0  0  0
    5.1228    0.7700    0.0090 N   0  0  0  0  0  0  0  0  0  0  0  0
    3.8030    0.9860    0.1772 N   0  0  0  0  0  0  0  0  0  0  0  0
   -0.9927   -3.4101   -0.9088 C   0  0  0  0  0  0  0  0  0  0  0  0
   -4.6607   -0.7854    0.4208 N   0  0  0  0  0  0  0  0  0  0  0  0
   -2.0449    2.7723   -0.9024 H   0  0  0  0  0  0  0  0  0  0  0  0
   -0.5486    3.6950   -0.6645 H   0  0  0  0  0  0  0  0  0  0  0  0
   -2.0501    4.2172    0.1284 H   0  0  0  0  0  0  0  0  0  0  0  0
   -0.4676    3.0751    1.7094 H   0  0  0  0  0  0  0  0  0  0  0  0
   -2.0277    2.2827    1.6399 H   0  0  0  0  0  0  0  0  0  0  0  0
    1.2746   -2.0258   -0.5241 H   0  0  0  0  0  0  0  0  0  0  0  0
    3.7101   -2.1491   -0.6403 H   0  0  0  0  0  0  0  0  0  0  0  0
    6.1604   -0.9601   -0.5151 H   0  0  0  0  0  0  0  0  0  0  0  0
    3.4872    1.9161    0.4506 H   0  0  0  0  0  0  0  0  0  0  0  0
   -0.3878   -3.2921   -1.8174 H   0  0  0  0  0  0  0  0  0  0  0  0
   -0.3911   -3.9072   -0.1357 H   0  0  0  0  0  0  0  0  0  0  0  0
   -1.8317   -4.0660   -1.1472 H   0  0  0  0  0  0  0  0  0  0  0  0
   -5.1891   -1.3788   -0.2019 H   0  0  0  0  0  0  0  0  0  0  0  0
   -4.9993    0.1423    0.6592 H   0  0  0  0  0  0  0  0  0  0  0  0
  1  2  1  0
  2  3  1  0
  3  4  1  0
  4  5  2  0
  5  6  1  0
  6  7  2  0
  7  8  1  0
  8  9  2  0
  9 10  1  0
 10 11  2  0
 11 12  1  0
 12 13  2  0
 11 14  1  0
 14 15  2  0
 15 16  1  0
 16 17  2  0
 17 18  1  0
  8 19  1  0
  6 20  1  0
 12  3  1  0
  9  4  1  0
 18 14  1  0
  1 21  1  0
  1 22  1  0
  1 23  1  0
  2 24  1  0
  2 25  1  0
 10 26  1  0
 15 27  1  0
 16 28  1  0
 18 29  1  0
 19 30  1  0
 19 31  1  0
 19 32  1  0
 20 33  1  0
 20 34  1  0
M  END
$$$$
