
     RDKit          3D

 72 77  0  0  0  0  0  0  0  0999 V2000
   -7.1151    0.3451    1.8312 C   0  0  0  0  0  0  0  0  0  0  0  0
   -6.1008    0.3620    0.7220 C   0  0  0  0  0  0  0  0  0  0  0  0
   -6.2991    0.8641   -0.5159 C   0  0  0  0  0  0  0  0  0  0  0  0
   -5.1678    0.9300   -1.4909 C   0  0  0  0  0  0  0  0  0  0  0  0
   -5.2377    1.6134   -2.5056 O   0  0  0  0  0  0  0  0  0  0  0  0
   -4.0464    0.2299   -1.1922 O   0  0  0  0  0  0  0  0  0  0  0  0
   -4.0944   -0.7826   -0.1709 C   0  0  2  0  0  0  0  0  0  0  0  0
   -4.7610   -0.2295    1.0876 C   0  0  0  0  0  0  0  0  0  0  0  0
   -2.6642   -1.4104    0.0252 C   0  0  1  0  0  0  0  0  0  0  0  0
   -2.4462   -2.3826   -1.1509 C   0  0  0  0  0  0  0  0  0  0  0  0
   -1.5034   -0.3489    0.0645 C   0  0  1  0  0  0  0  0  0  0  0  0
   -1.5986    0.6704    1.2371 C   0  0  0  0  0  0  0  0  0  0  0  0
   -0.1740    1.1406    1.5580 C   0  0  0  0  0  0  0  0  0  0  0  0
    0.6614    0.5788    0.4198 C   0  0  2  0  0  0  0  0  0  0  0  0
    0.0034   -0.7921    0.1213 C   0  0  2  0  0  0  0  0  0  0  0  0
    0.6182   -1.2633   -1.2098 C   0  0  0  0  0  0  0  0  0  0  0  0
    2.1533   -1.3395   -1.1445 C   0  0  0  0  0  0  0  0  0  0  0  0
    2.8458   -0.0149   -0.7060 C   0  0  1  0  0  0  0  0  0  0  0  0
    2.1881    0.5279    0.5982 C   0  0  1  0  0  0  0  0  0  0  0  0
    2.7229    1.9279    0.9160 C   0  0  0  0  0  0  0  0  0  0  0  0
    4.2026    1.9660    0.9918 C   0  0  2  0  0  0  0  0  0  0  0  0
    5.0687    0.9868    0.2254 C   0  0  1  0  0  0  0  0  0  0  0  0
    4.4378   -0.1124   -0.6539 C   0  0  2  0  0  0  0  0  0  0  0  0
    4.9360    0.0225   -2.1211 C   0  0  0  0  0  0  0  0  0  0  0  0
    4.3817   -0.5251   -3.0753 O   0  0  0  0  0  0  0  0  0  0  0  0
    6.1532    0.8110   -2.4359 C   0  0  0  0  0  0  0  0  0  0  0  0
    6.8738    1.4084   -1.4837 C   0  0  0  0  0  0  0  0  0  0  0  0
    6.5066    1.3780   -0.0439 C   0  0  2  0  0  0  0  0  0  0  0  0
    7.3885    0.4587    0.5867 O   0  0  0  0  0  0  0  0  0  0  0  0
    4.9178   -1.4920   -0.1539 C   0  0  0  0  0  0  0  0  0  0  0  0
    4.7916    0.8456    1.6437 O   0  0  0  0  0  0  0  0  0  0  0  0
    0.2493   -1.8448    1.2260 C   0  0  0  0  0  0  0  0  0  0  0  0
   -2.6850   -2.2401    1.1934 O   0  0  0  0  0  0  0  0  0  0  0  0
   -7.5814    1.4465   -1.0376 C   0  0  0  0  0  0  0  0  0  0  0  0
   -8.0085    0.9341    1.6148 H   0  0  0  0  0  0  0  0  0  0  0  0
   -6.6770    0.7635    2.7440 H   0  0  0  0  0  0  0  0  0  0  0  0
   -7.4280   -0.6829    2.0398 H   0  0  0  0  0  0  0  0  0  0  0  0
   -4.7537   -1.5808   -0.5447 H   0  0  0  0  0  0  0  0  0  0  0  0
   -4.1797    0.5628    1.5622 H   0  0  0  0  0  0  0  0  0  0  0  0
   -4.8928   -1.0369    1.8163 H   0  0  0  0  0  0  0  0  0  0  0  0
   -2.2819   -1.8541   -2.0950 H   0  0  0  0  0  0  0  0  0  0  0  0
   -3.3099   -3.0464   -1.2803 H   0  0  0  0  0  0  0  0  0  0  0  0
   -1.6114   -3.0615   -0.9585 H   0  0  0  0  0  0  0  0  0  0  0  0
   -1.6022    0.2403   -0.8603 H   0  0  0  0  0  0  0  0  0  0  0  0
   -2.0372    0.2462    2.1440 H   0  0  0  0  0  0  0  0  0  0  0  0
   -2.2153    1.5254    0.9378 H   0  0  0  0  0  0  0  0  0  0  0  0
    0.1516    0.7473    2.5276 H   0  0  0  0  0  0  0  0  0  0  0  0
   -0.1229    2.2330    1.6105 H   0  0  0  0  0  0  0  0  0  0  0  0
    0.4753    1.2403   -0.4439 H   0  0  0  0  0  0  0  0  0  0  0  0
    0.3328   -0.5820   -2.0218 H   0  0  0  0  0  0  0  0  0  0  0  0
    0.2495   -2.2527   -1.4923 H   0  0  0  0  0  0  0  0  0  0  0  0
    2.5074   -1.6477   -2.1328 H   0  0  0  0  0  0  0  0  0  0  0  0
    2.4238   -2.1511   -0.4614 H   0  0  0  0  0  0  0  0  0  0  0  0
    2.6060    0.7228   -1.4887 H   0  0  0  0  0  0  0  0  0  0  0  0
    2.4395   -0.1387    1.4315 H   0  0  0  0  0  0  0  0  0  0  0  0
    2.3941    2.6433    0.1522 H   0  0  0  0  0  0  0  0  0  0  0  0
    2.3195    2.2765    1.8736 H   0  0  0  0  0  0  0  0  0  0  0  0
    4.5817    2.9505    1.2334 H   0  0  0  0  0  0  0  0  0  0  0  0
    6.4412    0.8432   -3.4810 H   0  0  0  0  0  0  0  0  0  0  0  0
    7.7751    1.9472   -1.7616 H   0  0  0  0  0  0  0  0  0  0  0  0
    6.6977    2.3695    0.3847 H   0  0  0  0  0  0  0  0  0  0  0  0
    8.2389    0.9110    0.7100 H   0  0  0  0  0  0  0  0  0  0  0  0
    4.6417   -2.2987   -0.8418 H   0  0  0  0  0  0  0  0  0  0  0  0
    4.5048   -1.7226    0.8340 H   0  0  0  0  0  0  0  0  0  0  0  0
    6.0083   -1.5369   -0.0708 H   0  0  0  0  0  0  0  0  0  0  0  0
   -0.2067   -1.5639    2.1800 H   0  0  0  0  0  0  0  0  0  0  0  0
   -0.1620   -2.8174    0.9368 H   0  0  0  0  0  0  0  0  0  0  0  0
    1.3111   -2.0073    1.4284 H   0  0  0  0  0  0  0  0  0  0  0  0
   -2.4819   -1.7040    1.9754 H   0  0  0  0  0  0  0  0  0  0  0  0
   -7.5116    2.5382   -1.0864 H   0  0  0  0  0  0  0  0  0  0  0  0
   -7.7937    1.0677   -2.0440 H   0  0  0  0  0  0  0  0  0  0  0  0
   -8.4496    1.1876   -0.4272 H   0  0  0  0  0  0  0  0  0  0  0  0
  1  2  1  0
  2  3  2  0
  3  4  1  0
  4  5  2  0
  4  6  1  0
  6  7  1  0
  7  8  1  0
  7  9  1  0
  9 10  1  0
  9 11  1  0
 11 12  1  0
 12 13  1  0
 13 14  1  0
 14 15  1  0
 15 16  1  0
 16 17  1  0
 17 18  1  0
 18 19  1  0
 19 20  1  0
 20 21  1  0
 21 22  1  0
 22 23  1  0
 23 24  1  0
 24 25  2  0
 24 26  1  0
 26 27  2  0
 27 28  1  0
 28 29  1  0
 23 30  1  1
 22 31  1  1
 15 32  1  1
  9 33  1  1
  3 34  1  0
  8  2  1  0
 15 11  1  0
 19 14  1  0
 23 18  1  0
 31 21  1  0
 28 22  1  0
  1 35  1  0
  1 36  1  0
  1 37  1  0
  7 38  1  6
  8 39  1  0
  8 40  1  0
 10 41  1  0
 10 42  1  0
 10 43  1  0
 11 44  1  6
 12 45  1  0
 12 46  1  0
 13 47  1  0
 13 48  1  0
 14 49  1  6
 16 50  1  0
 16 51  1  0
 17 52  1  0
 17 53  1  0
 18 54  1  6
 19 55  1  1
 20 56  1  0
 20 57  1  0
 21 58  1  1
 26 59  1  0
 27 60  1  0
 28 61  1  1
 29 62  1  0
 30 63  1  0
 30 64  1  0
 30 65  1  0
 32 66  1  0
 32 67  1  0
 32 68  1  0
 33 69  1  0
 34 70  1  0
 34 71  1  0
 34 72  1  0
M  END
$$$$
