
     RDKit          3D

 40 43  0  0  0  0  0  0  0  0999 V2000
    6.1697   -0.2994   -0.6085 C   0  0  0  0  0  0  0  0  0  0  0  0
    4.8856    0.2719   -0.1359 C   0  0  0  0  0  0  0  0  0  0  0  0
    4.7124    1.3886    0.6654 C   0  0  0  0  0  0  0  0  0  0  0  0
    3.3918    1.6242    0.9007 O   0  0  0  0  0  0  0  0  0  0  0  0
    2.7144    0.6554    0.2423 C   0  0  0  0  0  0  0  0  0  0  0  0
    3.5718   -0.1898   -0.4108 C   0  0  0  0  0  0  0  0  0  0  0  0
    3.0208   -1.2800   -1.1741 C   0  0  0  0  0  0  0  0  0  0  0  0
    3.7296   -2.0985   -1.7422 O   0  0  0  0  0  0  0  0  0  0  0  0
    1.4807   -1.3833   -1.2554 C   0  0  0  0  0  0  0  0  0  0  0  0
    1.0034   -2.2491   -1.9829 O   0  0  0  0  0  0  0  0  0  0  0  0
    0.6182   -0.4190   -0.4536 C   0  0  0  0  0  0  0  0  0  0  0  0
    1.2721    0.5961    0.2803 C   0  0  0  0  0  0  0  0  0  0  0  0
    0.5325    1.5103    1.0253 C   0  0  0  0  0  0  0  0  0  0  0  0
   -0.8553    1.4410    1.0394 C   0  0  0  0  0  0  0  0  0  0  0  0
   -1.5501    0.4628    0.3054 C   0  0  0  0  0  0  0  0  0  0  0  0
   -0.8065   -0.5009   -0.4321 C   0  0  0  0  0  0  0  0  0  0  0  0
   -1.5229   -1.5763   -1.2256 C   0  0  0  0  0  0  0  0  0  0  0  0
   -3.0246   -1.6957   -0.9993 C   0  0  0  0  0  0  0  0  0  0  0  0
   -3.6603   -0.3289   -0.8520 C   0  0  0  0  0  0  0  0  0  0  0  0
   -3.0869    0.4400    0.3577 C   0  0  0  0  0  0  0  0  0  0  0  0
   -3.5206   -0.2266    1.6800 C   0  0  0  0  0  0  0  0  0  0  0  0
   -3.7105    1.8558    0.3108 C   0  0  0  0  0  0  0  0  0  0  0  0
    6.3269   -0.0623   -1.6655 H   0  0  0  0  0  0  0  0  0  0  0  0
    6.1815   -1.3888   -0.4906 H   0  0  0  0  0  0  0  0  0  0  0  0
    7.0124    0.1059   -0.0387 H   0  0  0  0  0  0  0  0  0  0  0  0
    5.3984    2.0863    1.1261 H   0  0  0  0  0  0  0  0  0  0  0  0
    1.0314    2.2873    1.6011 H   0  0  0  0  0  0  0  0  0  0  0  0
   -1.3899    2.1720    1.6447 H   0  0  0  0  0  0  0  0  0  0  0  0
   -1.3564   -1.3706   -2.2916 H   0  0  0  0  0  0  0  0  0  0  0  0
   -1.0976   -2.5591   -0.9832 H   0  0  0  0  0  0  0  0  0  0  0  0
   -3.2244   -2.3073   -0.1110 H   0  0  0  0  0  0  0  0  0  0  0  0
   -3.4772   -2.2325   -1.8424 H   0  0  0  0  0  0  0  0  0  0  0  0
   -4.7469   -0.4434   -0.7509 H   0  0  0  0  0  0  0  0  0  0  0  0
   -3.4910    0.2406   -1.7770 H   0  0  0  0  0  0  0  0  0  0  0  0
   -4.6087   -0.3543    1.7228 H   0  0  0  0  0  0  0  0  0  0  0  0
   -3.0607   -1.2130    1.8147 H   0  0  0  0  0  0  0  0  0  0  0  0
   -3.2262    0.3751    2.5489 H   0  0  0  0  0  0  0  0  0  0  0  0
   -3.4962    2.4402    1.2124 H   0  0  0  0  0  0  0  0  0  0  0  0
   -4.8022    1.8000    0.2307 H   0  0  0  0  0  0  0  0  0  0  0  0
   -3.3389    2.4252   -0.5488 H   0  0  0  0  0  0  0  0  0  0  0  0
  1  2  1  0
  2  3  2  0
  3  4  1  0
  4  5  1  0
  5  6  2  0
  6  7  1  0
  7  8  2  0
  7  9  1  0
  9 10  2  0
  9 11  1  0
 11 12  2  0
 12 13  1  0
 13 14  2  0
 14 15  1  0
 15 16  2  0
 16 17  1  0
 17 18  1  0
 18 19  1  0
 19 20  1  0
 20 21  1  0
 20 22  1  0
  6  2  1  0
 12  5  1  0
 16 11  1  0
 20 15  1  0
  1 23  1  0
  1 24  1  0
  1 25  1  0
  3 26  1  0
 13 27  1  0
 14 28  1  0
 17 29  1  0
 17 30  1  0
 18 31  1  0
 18 32  1  0
 19 33  1  0
 19 34  1  0
 21 35  1  0
 21 36  1  0
 21 37  1  0
 22 38  1  0
 22 39  1  0
 22 40  1  0
M  END
$$$$
