
     RDKit          3D

 48 52  0  0  0  0  0  0  0  0999 V2000
    0.2588   -2.7976   -0.1033 C   0  0  0  0  0  0  0  0  0  0  0  0
    0.1439   -1.3025    0.3232 C   0  0  0  0  0  0  0  0  0  0  0  0
   -1.3791   -0.9715    0.4985 C   0  0  1  0  0  0  0  0  0  0  0  0
   -1.8015    0.1257    1.5213 C   0  0  0  0  0  0  0  0  0  0  0  0
   -3.0581    0.7917    0.9113 C   0  0  1  0  0  0  0  0  0  0  0  0
   -2.7526    2.1711    0.3160 C   0  0  0  0  0  0  0  0  0  0  0  0
   -2.2072    2.0290   -1.0901 C   0  0  0  0  0  0  0  0  0  0  0  0
   -2.3005    2.9453   -1.9118 O   0  0  0  0  0  0  0  0  0  0  0  0
   -1.4128    0.7382   -1.4202 C   0  0  2  0  0  0  0  0  0  0  0  0
   -2.0998   -0.5229   -0.7901 C   0  0  2  0  0  0  0  0  0  0  0  0
   -3.4918   -0.1585   -0.2216 C   0  0  1  0  0  0  0  0  0  0  0  0
   -4.2098   -1.2921    0.2708 O   0  0  0  0  0  0  0  0  0  0  0  0
    0.0431    0.8735   -1.0063 C   0  0  0  0  0  0  0  0  0  0  0  0
    0.6872    2.0430   -0.7989 C   0  0  0  0  0  0  0  0  0  0  0  0
    1.9946    2.1926   -0.4112 O   0  0  0  0  0  0  0  0  0  0  0  0
    2.8000    1.0857   -0.4914 C   0  0  0  0  0  0  0  0  0  0  0  0
    2.2966   -0.2034   -0.7131 C   0  0  0  0  0  0  0  0  0  0  0  0
    0.8018   -0.4253   -0.8391 C   0  0  1  0  0  0  0  0  0  0  0  0
    3.2232   -1.2594   -0.8432 C   0  0  0  0  0  0  0  0  0  0  0  0
    4.5909   -1.0339   -0.6533 C   0  0  0  0  0  0  0  0  0  0  0  0
    5.0498    0.2520   -0.3969 C   0  0  0  0  0  0  0  0  0  0  0  0
    4.1621    1.3308   -0.3078 C   0  0  0  0  0  0  0  0  0  0  0  0
    6.3976    0.4268   -0.2238 O   0  0  0  0  0  0  0  0  0  0  0  0
   -1.4498    0.5418   -2.8366 O   0  0  0  0  0  0  0  0  0  0  0  0
   -4.0665    0.9082    1.9094 O   0  0  0  0  0  0  0  0  0  0  0  0
    0.8468   -1.1645    1.6941 C   0  0  0  0  0  0  0  0  0  0  0  0
    0.1696   -2.9411   -1.1984 H   0  0  0  0  0  0  0  0  0  0  0  0
    1.2242   -3.2536    0.1910 H   0  0  0  0  0  0  0  0  0  0  0  0
   -0.5287   -3.4355    0.3486 H   0  0  0  0  0  0  0  0  0  0  0  0
   -1.8574   -1.8923    0.8743 H   0  0  0  0  0  0  0  0  0  0  0  0
   -1.0081    0.8643    1.6840 H   0  0  0  0  0  0  0  0  0  0  0  0
   -2.0124   -0.3308    2.4863 H   0  0  0  0  0  0  0  0  0  0  0  0
   -3.6715    2.7631    0.2534 H   0  0  0  0  0  0  0  0  0  0  0  0
   -2.0488    2.7390    0.9365 H   0  0  0  0  0  0  0  0  0  0  0  0
   -2.1701   -1.3727   -1.4924 H   0  0  0  0  0  0  0  0  0  0  0  0
   -4.1450    0.3182   -0.9722 H   0  0  0  0  0  0  0  0  0  0  0  0
   -4.0910   -1.3232    1.2419 H   0  0  0  0  0  0  0  0  0  0  0  0
    0.2450    3.0310   -0.8978 H   0  0  0  0  0  0  0  0  0  0  0  0
    0.6754   -0.9501   -1.8005 H   0  0  0  0  0  0  0  0  0  0  0  0
    2.8932   -2.2689   -1.0503 H   0  0  0  0  0  0  0  0  0  0  0  0
    5.3008   -1.8565   -0.7170 H   0  0  0  0  0  0  0  0  0  0  0  0
    4.5147    2.3357   -0.1221 H   0  0  0  0  0  0  0  0  0  0  0  0
    6.5615    1.3726   -0.0790 H   0  0  0  0  0  0  0  0  0  0  0  0
   -1.2649    1.4233   -3.2217 H   0  0  0  0  0  0  0  0  0  0  0  0
   -4.9476    0.8585    1.4734 H   0  0  0  0  0  0  0  0  0  0  0  0
    0.2613   -1.6530    2.4901 H   0  0  0  0  0  0  0  0  0  0  0  0
    1.8419   -1.6447    1.7084 H   0  0  0  0  0  0  0  0  0  0  0  0
    0.9906   -0.1070    1.9820 H   0  0  0  0  0  0  0  0  0  0  0  0
  1  2  1  0
  2  3  1  0
  3  4  1  0
  4  5  1  0
  5  6  1  0
  6  7  1  0
  7  8  2  0
  7  9  1  0
  9 10  1  0
 10 11  1  0
 11 12  1  0
  9 13  1  0
 13 14  2  0
 14 15  1  0
 15 16  1  0
 16 17  2  0
 17 18  1  0
 17 19  1  0
 19 20  2  0
 20 21  1  0
 21 22  2  0
 21 23  1  0
  9 24  1  6
  5 25  1  1
  2 26  1  0
 18  2  1  0
 10  3  1  0
 11  5  1  0
 18 13  1  0
 22 16  1  0
  1 27  1  0
  1 28  1  0
  1 29  1  0
  3 30  1  1
  4 31  1  0
  4 32  1  0
  6 33  1  0
  6 34  1  0
 10 35  1  6
 11 36  1  6
 12 37  1  0
 14 38  1  0
 18 39  1  6
 19 40  1  0
 20 41  1  0
 22 42  1  0
 23 43  1  0
 24 44  1  0
 25 45  1  0
 26 46  1  0
 26 47  1  0
 26 48  1  0
M  END
$$$$
