
     RDKit          3D

 50 53  0  0  0  0  0  0  0  0999 V2000
   -3.0497   -1.5544    1.7456 C   0  0  0  0  0  0  0  0  0  0  0  0
   -4.0979   -1.7648    0.6444 C   0  0  0  0  0  0  0  0  0  0  0  0
   -4.2591   -3.1473    0.2751 O   0  0  0  0  0  0  0  0  0  0  0  0
   -3.0885   -3.9408    0.5274 C   0  0  0  0  0  0  0  0  0  0  0  0
   -1.7783   -3.1576    0.3478 C   0  0  0  0  0  0  0  0  0  0  0  0
   -1.7146   -2.0116    1.2928 N   0  0  0  0  0  0  0  0  0  0  0  0
   -0.8771   -0.9855    0.8044 C   0  0  0  0  0  0  0  0  0  0  0  0
   -1.3801    0.2341    0.5541 N   0  0  0  0  0  0  0  0  0  0  0  0
   -0.5746    1.1960    0.0802 C   0  0  0  0  0  0  0  0  0  0  0  0
    0.7271    0.9901   -0.1588 N   0  0  0  0  0  0  0  0  0  0  0  0
    1.2298   -0.2283    0.0977 C   0  0  0  0  0  0  0  0  0  0  0  0
    0.4596   -1.2521    0.5981 C   0  0  0  0  0  0  0  0  0  0  0  0
    2.6598   -0.3778   -0.1763 C   0  0  0  0  0  0  0  0  0  0  0  0
    3.5819    0.3460    0.5764 C   0  0  0  0  0  0  0  0  0  0  0  0
    4.9270    0.2796    0.4303 N   0  0  0  0  0  0  0  0  0  0  0  0
    5.4147   -0.5270   -0.5182 C   0  0  0  0  0  0  0  0  0  0  0  0
    4.5852   -1.2756   -1.3409 C   0  0  0  0  0  0  0  0  0  0  0  0
    3.1882   -1.2044   -1.1828 C   0  0  0  0  0  0  0  0  0  0  0  0
    2.3010   -2.0084   -2.0956 C   0  0  0  0  0  0  0  0  0  0  0  0
    1.3155   -1.2788   -2.6812 F   0  0  0  0  0  0  0  0  0  0  0  0
    1.6805   -3.0325   -1.4441 F   0  0  0  0  0  0  0  0  0  0  0  0
    2.9808   -2.5950   -3.1227 F   0  0  0  0  0  0  0  0  0  0  0  0
    6.7997   -0.5849   -0.6736 N   0  0  0  0  0  0  0  0  0  0  0  0
   -1.1077    2.4367   -0.2009 N   0  0  0  0  0  0  0  0  0  0  0  0
   -2.3792    2.8255    0.4144 C   0  0  0  0  0  0  0  0  0  0  0  0
   -2.2235    4.1743    1.1364 C   0  0  0  0  0  0  0  0  0  0  0  0
   -1.7861    5.2446    0.2849 O   0  0  0  0  0  0  0  0  0  0  0  0
   -0.9596    4.8072   -0.8058 C   0  0  0  0  0  0  0  0  0  0  0  0
   -0.1730    3.5214   -0.5093 C   0  0  0  0  0  0  0  0  0  0  0  0
   -3.3213   -2.1674    2.6145 H   0  0  0  0  0  0  0  0  0  0  0  0
   -3.0516   -0.5179    2.1019 H   0  0  0  0  0  0  0  0  0  0  0  0
   -3.8335   -1.2073   -0.2612 H   0  0  0  0  0  0  0  0  0  0  0  0
   -5.0752   -1.4038    0.9797 H   0  0  0  0  0  0  0  0  0  0  0  0
   -3.1156   -4.7914   -0.1611 H   0  0  0  0  0  0  0  0  0  0  0  0
   -3.1644   -4.3424    1.5447 H   0  0  0  0  0  0  0  0  0  0  0  0
   -1.7341   -2.8020   -0.6908 H   0  0  0  0  0  0  0  0  0  0  0  0
   -0.9290   -3.8271    0.5242 H   0  0  0  0  0  0  0  0  0  0  0  0
    0.8812   -2.2197    0.8363 H   0  0  0  0  0  0  0  0  0  0  0  0
    3.2518    1.0285    1.3578 H   0  0  0  0  0  0  0  0  0  0  0  0
    5.0184   -1.9098   -2.1100 H   0  0  0  0  0  0  0  0  0  0  0  0
    7.0603   -0.2651   -1.6011 H   0  0  0  0  0  0  0  0  0  0  0  0
    7.1295   -1.5375   -0.5583 H   0  0  0  0  0  0  0  0  0  0  0  0
   -2.7607    2.0928    1.1337 H   0  0  0  0  0  0  0  0  0  0  0  0
   -3.1242    2.9238   -0.3840 H   0  0  0  0  0  0  0  0  0  0  0  0
   -3.1786    4.4772    1.5774 H   0  0  0  0  0  0  0  0  0  0  0  0
   -1.4998    4.0857    1.9554 H   0  0  0  0  0  0  0  0  0  0  0  0
   -1.6114    4.6632   -1.6757 H   0  0  0  0  0  0  0  0  0  0  0  0
   -0.2719    5.6246   -1.0446 H   0  0  0  0  0  0  0  0  0  0  0  0
    0.4914    3.6951    0.3468 H   0  0  0  0  0  0  0  0  0  0  0  0
    0.4369    3.2716   -1.3854 H   0  0  0  0  0  0  0  0  0  0  0  0
  1  2  1  0
  2  3  1  0
  3  4  1  0
  4  5  1  0
  5  6  1  0
  6  7  1  0
  7  8  2  0
  8  9  1  0
  9 10  2  0
 10 11  1  0
 11 12  2  0
 11 13  1  0
 13 14  2  0
 14 15  1  0
 15 16  2  0
 16 17  1  0
 17 18  2  0
 18 19  1  0
 19 20  1  0
 19 21  1  0
 19 22  1  0
 16 23  1  0
  9 24  1  0
 24 25  1  0
 25 26  1  0
 26 27  1  0
 27 28  1  0
 28 29  1  0
  6  1  1  0
 12  7  1  0
 18 13  1  0
 29 24  1  0
  1 30  1  0
  1 31  1  0
  2 32  1  0
  2 33  1  0
  4 34  1  0
  4 35  1  0
  5 36  1  0
  5 37  1  0
 12 38  1  0
 14 39  1  0
 17 40  1  0
 23 41  1  0
 23 42  1  0
 25 43  1  0
 25 44  1  0
 26 45  1  0
 26 46  1  0
 28 47  1  0
 28 48  1  0
 29 49  1  0
 29 50  1  0
M  END
$$$$
