
     RDKit          3D

 31 31  0  0  0  0  0  0  0  0999 V2000
    3.1419   -0.7441    1.0383 C   0  0  0  0  0  0  0  0  0  0  0  0
    2.3545   -0.0855   -0.0988 C   0  0  2  0  0  0  0  0  0  0  0  0
    1.6105    1.1657    0.3806 C   0  0  0  0  0  0  0  0  0  0  0  0
    0.3272    0.8391    1.1431 C   0  0  0  0  0  0  0  0  0  0  0  0
   -0.6121   -0.1342    0.3885 C   0  0  2  0  0  0  0  0  0  0  0  0
   -0.0103   -0.5823   -0.9673 C   0  0  1  0  0  0  0  0  0  0  0  0
    1.4122   -1.1078   -0.7599 C   0  0  0  0  0  0  0  0  0  0  0  0
   -0.7885   -1.6272   -1.5384 O   0  0  0  0  0  0  0  0  0  0  0  0
   -2.0649    0.4247    0.3276 C   0  0  0  0  0  0  0  0  0  0  0  0
   -3.1004   -0.6529   -0.0160 C   0  0  0  0  0  0  0  0  0  0  0  0
   -2.2396    1.6221   -0.6154 C   0  0  0  0  0  0  0  0  0  0  0  0
    2.4828   -1.0518    1.8533 H   0  0  0  0  0  0  0  0  0  0  0  0
    3.6724   -1.6290    0.6695 H   0  0  0  0  0  0  0  0  0  0  0  0
    3.8881   -0.0545    1.4395 H   0  0  0  0  0  0  0  0  0  0  0  0
    3.0844    0.2434   -0.8471 H   0  0  0  0  0  0  0  0  0  0  0  0
    1.3510    1.7808   -0.4874 H   0  0  0  0  0  0  0  0  0  0  0  0
    2.2691    1.7861    1.0003 H   0  0  0  0  0  0  0  0  0  0  0  0
   -0.1810    1.7813    1.4030 H   0  0  0  0  0  0  0  0  0  0  0  0
    0.5836    0.3891    2.1135 H   0  0  0  0  0  0  0  0  0  0  0  0
   -0.6740   -1.0380    1.0186 H   0  0  0  0  0  0  0  0  0  0  0  0
    0.0016    0.2466   -1.6863 H   0  0  0  0  0  0  0  0  0  0  0  0
    1.3563   -2.0378   -0.1702 H   0  0  0  0  0  0  0  0  0  0  0  0
    1.8348   -1.4239   -1.7237 H   0  0  0  0  0  0  0  0  0  0  0  0
   -0.3410   -1.9112   -2.3551 H   0  0  0  0  0  0  0  0  0  0  0  0
   -2.3237    0.7683    1.3417 H   0  0  0  0  0  0  0  0  0  0  0  0
   -4.1064   -0.2930    0.2308 H   0  0  0  0  0  0  0  0  0  0  0  0
   -3.1109   -0.9012   -1.0792 H   0  0  0  0  0  0  0  0  0  0  0  0
   -2.9267   -1.5689    0.5570 H   0  0  0  0  0  0  0  0  0  0  0  0
   -1.9418    1.3820   -1.6452 H   0  0  0  0  0  0  0  0  0  0  0  0
   -3.2978    1.9294   -0.6439 H   0  0  0  0  0  0  0  0  0  0  0  0
   -1.6514    2.4848   -0.2714 H   0  0  0  0  0  0  0  0  0  0  0  0
  1  2  1  0
  2  3  1  0
  3  4  1  0
  4  5  1  0
  5  6  1  0
  6  7  1  0
  6  8  1  0
  5  9  1  0
  9 10  1  0
  9 11  1  0
  7  2  1  0
  1 12  1  0
  1 13  1  0
  1 14  1  0
  2 15  1  6
  3 16  1  0
  3 17  1  0
  4 18  1  0
  4 19  1  0
  5 20  1  1
  6 21  1  6
  7 22  1  0
  7 23  1  0
  8 24  1  0
  9 25  1  0
 10 26  1  0
 10 27  1  0
 10 28  1  0
 11 29  1  0
 11 30  1  0
 11 31  1  0
M  END
$$$$
