
     RDKit          3D

 57 60  0  0  0  0  0  0  0  0999 V2000
    5.4426   -1.2507    2.3042 C   0  0  0  0  0  0  0  0  0  0  0  0
    5.9852    0.1198    1.9224 C   0  0  0  0  0  0  0  0  0  0  0  0
    5.7399    0.5769    0.5494 N   0  0  0  0  0  0  0  0  0  0  0  0
    6.4805   -0.1840   -0.4567 C   0  0  0  0  0  0  0  0  0  0  0  0
    6.5710    0.5477   -1.7925 C   0  0  0  0  0  0  0  0  0  0  0  0
    4.3231    0.8410    0.2497 C   0  0  0  0  0  0  0  0  0  0  0  0
    3.4627   -0.3043   -0.3243 C   0  0  0  0  0  0  0  0  0  0  0  0
    2.0831    0.1268   -0.5379 N   0  0  0  0  0  0  0  0  0  0  0  0
    1.6941    0.5594   -1.8922 C   0  0  0  0  0  0  0  0  0  0  0  0
    0.5199    1.5547   -1.9235 C   0  0  0  0  0  0  0  0  0  0  0  0
   -0.5007    1.0850   -0.9599 C   0  0  0  0  0  0  0  0  0  0  0  0
   -0.2267    0.3039    0.1444 C   0  0  0  0  0  0  0  0  0  0  0  0
    1.1331   -0.1314    0.4651 C   0  0  0  0  0  0  0  0  0  0  0  0
    1.4180   -0.6529    1.5396 O   0  0  0  0  0  0  0  0  0  0  0  0
   -1.4706    0.0800    0.8108 C   0  0  0  0  0  0  0  0  0  0  0  0
   -2.4470    0.7331    0.0685 C   0  0  0  0  0  0  0  0  0  0  0  0
   -1.8388    1.3432   -1.0032 N   0  0  0  0  0  0  0  0  0  0  0  0
   -3.8424    0.8953    0.2168 C   0  0  0  0  0  0  0  0  0  0  0  0
   -4.7257   -0.0832   -0.0273 C   0  0  0  0  0  0  0  0  0  0  0  0
   -6.1763    0.0265    0.1788 C   0  0  0  0  0  0  0  0  0  0  0  0
   -6.7157   -1.2156   -0.1749 C   0  0  0  0  0  0  0  0  0  0  0  0
   -8.0675   -1.4903   -0.1038 C   0  0  0  0  0  0  0  0  0  0  0  0
   -8.9033   -0.4656    0.3437 C   0  0  0  0  0  0  0  0  0  0  0  0
   -8.3665    0.7807    0.7002 C   0  0  0  0  0  0  0  0  0  0  0  0
   -6.9991    1.0446    0.6241 C   0  0  0  0  0  0  0  0  0  0  0  0
   -9.1929    1.7446    1.1268 F   0  0  0  0  0  0  0  0  0  0  0  0
   -5.7118   -2.0810   -0.5921 N   0  0  0  0  0  0  0  0  0  0  0  0
   -4.4622   -1.4768   -0.5502 C   0  0  0  0  0  0  0  0  0  0  0  0
   -3.4149   -1.9855   -0.8956 O   0  0  0  0  0  0  0  0  0  0  0  0
   -1.6590   -0.7162    2.0538 C   0  0  0  0  0  0  0  0  0  0  0  0
    5.7661   -2.0285    1.6062 H   0  0  0  0  0  0  0  0  0  0  0  0
    5.8086   -1.5274    3.2986 H   0  0  0  0  0  0  0  0  0  0  0  0
    4.3507   -1.2489    2.3540 H   0  0  0  0  0  0  0  0  0  0  0  0
    7.0679    0.1250    2.1035 H   0  0  0  0  0  0  0  0  0  0  0  0
    5.5842    0.8632    2.6225 H   0  0  0  0  0  0  0  0  0  0  0  0
    7.5114   -0.3343   -0.1114 H   0  0  0  0  0  0  0  0  0  0  0  0
    6.0556   -1.1823   -0.6068 H   0  0  0  0  0  0  0  0  0  0  0  0
    6.9994    1.5480   -1.6648 H   0  0  0  0  0  0  0  0  0  0  0  0
    7.2190   -0.0082   -2.4787 H   0  0  0  0  0  0  0  0  0  0  0  0
    5.5933    0.6515   -2.2725 H   0  0  0  0  0  0  0  0  0  0  0  0
    4.2944    1.6700   -0.4700 H   0  0  0  0  0  0  0  0  0  0  0  0
    3.8296    1.2510    1.1411 H   0  0  0  0  0  0  0  0  0  0  0  0
    3.8547   -0.6581   -1.2834 H   0  0  0  0  0  0  0  0  0  0  0  0
    3.4662   -1.1642    0.3498 H   0  0  0  0  0  0  0  0  0  0  0  0
    1.4298   -0.3511   -2.4446 H   0  0  0  0  0  0  0  0  0  0  0  0
    2.5617    1.0141   -2.3839 H   0  0  0  0  0  0  0  0  0  0  0  0
    0.1189    1.6359   -2.9389 H   0  0  0  0  0  0  0  0  0  0  0  0
    0.8700    2.5470   -1.6154 H   0  0  0  0  0  0  0  0  0  0  0  0
   -2.3143    1.8793   -1.7171 H   0  0  0  0  0  0  0  0  0  0  0  0
   -4.1815    1.8613    0.5797 H   0  0  0  0  0  0  0  0  0  0  0  0
   -8.4702   -2.4576   -0.3807 H   0  0  0  0  0  0  0  0  0  0  0  0
   -9.9756   -0.6224    0.4219 H   0  0  0  0  0  0  0  0  0  0  0  0
   -6.6194    2.0167    0.9116 H   0  0  0  0  0  0  0  0  0  0  0  0
   -5.8370   -3.0300   -0.9098 H   0  0  0  0  0  0  0  0  0  0  0  0
   -1.3467   -1.7534    1.8922 H   0  0  0  0  0  0  0  0  0  0  0  0
   -1.0635   -0.2955    2.8709 H   0  0  0  0  0  0  0  0  0  0  0  0
   -2.7055   -0.7267    2.3751 H   0  0  0  0  0  0  0  0  0  0  0  0
  1  2  1  0
  2  3  1  0
  3  4  1  0
  4  5  1  0
  3  6  1  0
  6  7  1  0
  7  8  1  0
  8  9  1  0
  9 10  1  0
 10 11  1  0
 11 12  2  0
 12 13  1  0
 13 14  2  0
 12 15  1  0
 15 16  2  0
 16 17  1  0
 16 18  1  0
 18 19  2  0
 19 20  1  0
 20 21  1  0
 21 22  2  0
 22 23  1  0
 23 24  2  0
 24 25  1  0
 24 26  1  0
 21 27  1  0
 27 28  1  0
 28 29  2  0
 15 30  1  0
 13  8  1  0
 17 11  1  0
 28 19  1  0
 25 20  2  0
  1 31  1  0
  1 32  1  0
  1 33  1  0
  2 34  1  0
  2 35  1  0
  4 36  1  0
  4 37  1  0
  5 38  1  0
  5 39  1  0
  5 40  1  0
  6 41  1  0
  6 42  1  0
  7 43  1  0
  7 44  1  0
  9 45  1  0
  9 46  1  0
 10 47  1  0
 10 48  1  0
 17 49  1  0
 18 50  1  0
 22 51  1  0
 23 52  1  0
 25 53  1  0
 27 54  1  0
 30 55  1  0
 30 56  1  0
 30 57  1  0
M  END
$$$$
