
     RDKit          3D

 26 24  0  0  0  0  0  0  0  0999 V2000
   -3.1750   -1.0220   -0.2971 C   0  0  0  0  0  0  0  0  0  0  0  0
   -2.0983   -0.0057   -0.6446 C   0  0  0  0  0  0  0  0  0  0  0  0
   -0.8844   -0.1421    0.2802 C   0  0  0  0  0  0  0  0  0  0  0  0
    0.2243    0.8633   -0.0611 C   0  0  0  0  0  0  0  0  0  0  0  0
    1.4967    0.6524    0.7822 C   0  0  0  0  0  0  0  0  0  0  0  0
    2.1916   -0.7054    0.6284 C   0  0  0  0  0  0  0  0  0  0  0  0
    2.5969   -1.0156   -0.8050 C   0  0  0  0  0  0  0  0  0  0  0  0
   -0.1494    2.3408    0.2073 C   0  0  0  0  0  0  0  0  0  0  0  0
   -1.0206    2.5491    1.1006 O   0  0  0  0  0  0  0  0  0  0  0  0
    0.4772    3.1760   -0.5095 O   0  0  0  0  0  1  0  0  0  0  0  0
    0.0000    0.0000    0.0000 Na  0  0  0  0  0 15  0  0  0  0  0  0
   -4.0362   -0.9065   -0.9608 H   0  0  0  0  0  0  0  0  0  0  0  0
   -2.8001   -2.0436   -0.3980 H   0  0  0  0  0  0  0  0  0  0  0  0
   -3.5263   -0.8839    0.7312 H   0  0  0  0  0  0  0  0  0  0  0  0
   -1.7895   -0.1546   -1.6839 H   0  0  0  0  0  0  0  0  0  0  0  0
   -2.5264    1.0002   -0.5730 H   0  0  0  0  0  0  0  0  0  0  0  0
   -1.2044   -0.0251    1.3233 H   0  0  0  0  0  0  0  0  0  0  0  0
   -0.5003   -1.1633    0.1827 H   0  0  0  0  0  0  0  0  0  0  0  0
    0.4712    0.7715   -1.1271 H   0  0  0  0  0  0  0  0  0  0  0  0
    1.2587    0.7925    1.8451 H   0  0  0  0  0  0  0  0  0  0  0  0
    2.2276    1.4361    0.5386 H   0  0  0  0  0  0  0  0  0  0  0  0
    1.5589   -1.5108    1.0197 H   0  0  0  0  0  0  0  0  0  0  0  0
    3.0937   -0.6988    1.2529 H   0  0  0  0  0  0  0  0  0  0  0  0
    1.7236   -1.1666   -1.4474 H   0  0  0  0  0  0  0  0  0  0  0  0
    3.1993   -0.2045   -1.2248 H   0  0  0  0  0  0  0  0  0  0  0  0
    3.1913   -1.9335   -0.8365 H   0  0  0  0  0  0  0  0  0  0  0  0
  1  2  1  0
  2  3  1  0
  3  4  1  0
  4  5  1  0
  5  6  1  0
  6  7  1  0
  4  8  1  0
  8  9  2  0
  8 10  1  0
  1 12  1  0
  1 13  1  0
  1 14  1  0
  2 15  1  0
  2 16  1  0
  3 17  1  0
  3 18  1  0
  4 19  1  0
  5 20  1  0
  5 21  1  0
  6 22  1  0
  6 23  1  0
  7 24  1  0
  7 25  1  0
  7 26  1  0
M  CHG  2  10  -1  11   1
M  END
$$$$
