
     RDKit          3D

 43 42  0  0  0  0  0  0  0  0999 V2000
   -2.7266   -0.9286   -2.8402 C   0  0  0  0  0  0  0  0  0  0  0  0
   -3.6042   -0.3183   -1.7962 C   0  0  0  0  0  0  0  0  0  0  0  0
   -4.6593   -0.9426   -1.2540 C   0  0  0  0  0  0  0  0  0  0  0  0
   -5.5193   -0.3764   -0.2413 C   0  0  0  0  0  0  0  0  0  0  0  0
   -5.2191   -0.1370    1.0448 C   0  0  0  0  0  0  0  0  0  0  0  0
   -3.9166   -0.4221    1.6838 C   0  0  0  0  0  0  0  0  0  0  0  0
   -3.8205   -1.2618    2.5684 O   0  0  0  0  0  0  0  0  0  0  0  0
   -2.9059    0.4046    1.2747 N   0  0  0  0  0  0  0  0  0  0  0  0
   -1.6068    0.3946    1.9472 C   0  0  1  0  0  0  0  0  0  0  0  0
   -0.5159    0.7844    0.9407 C   0  0  0  0  0  0  0  0  0  0  0  0
    0.8830    0.3951    1.4217 C   0  0  0  0  0  0  0  0  0  0  0  0
    2.1488    0.8315    0.1886 S   0  0  0  0  0  0  0  0  0  0  0  0
    1.9909   -0.5171   -0.9211 C   0  0  0  0  0  0  0  0  0  0  0  0
    1.1264   -1.3764   -0.8122 O   0  0  0  0  0  0  0  0  0  0  0  0
    2.8903   -0.4924   -2.0977 C   0  0  0  0  0  0  0  0  0  0  0  0
    4.2294   -0.4100   -2.1353 C   0  0  0  0  0  0  0  0  0  0  0  0
    5.1446   -0.3700   -1.0177 C   0  0  0  0  0  0  0  0  0  0  0  0
    6.4703   -0.2347   -1.1752 C   0  0  0  0  0  0  0  0  0  0  0  0
    7.4414   -0.2018   -0.0390 C   0  0  0  0  0  0  0  0  0  0  0  0
   -1.6068    1.3685    3.1336 C   0  0  0  0  0  0  0  0  0  0  0  0
   -0.7253    1.4753    3.9730 O   0  0  0  0  0  0  0  0  0  0  0  0
   -2.6579    2.2190    3.1603 O   0  0  0  0  0  0  0  0  0  0  0  0
   -3.0516   -1.9364   -3.1182 H   0  0  0  0  0  0  0  0  0  0  0  0
   -1.6978   -0.9902   -2.4714 H   0  0  0  0  0  0  0  0  0  0  0  0
   -2.7331   -0.3081   -3.7413 H   0  0  0  0  0  0  0  0  0  0  0  0
   -3.3384    0.6873   -1.4848 H   0  0  0  0  0  0  0  0  0  0  0  0
   -4.9442   -1.9338   -1.6039 H   0  0  0  0  0  0  0  0  0  0  0  0
   -6.5485   -0.2202   -0.5612 H   0  0  0  0  0  0  0  0  0  0  0  0
   -5.9872    0.1944    1.7348 H   0  0  0  0  0  0  0  0  0  0  0  0
   -3.1757    1.2454    0.7826 H   0  0  0  0  0  0  0  0  0  0  0  0
   -1.4360   -0.6124    2.3445 H   0  0  0  0  0  0  0  0  0  0  0  0
   -0.5590    1.8652    0.7496 H   0  0  0  0  0  0  0  0  0  0  0  0
   -0.7268    0.2898   -0.0154 H   0  0  0  0  0  0  0  0  0  0  0  0
    0.9426   -0.6716    1.6632 H   0  0  0  0  0  0  0  0  0  0  0  0
    1.1373    0.9446    2.3324 H   0  0  0  0  0  0  0  0  0  0  0  0
    2.3495   -0.6177   -3.0318 H   0  0  0  0  0  0  0  0  0  0  0  0
    4.6928   -0.4156   -3.1221 H   0  0  0  0  0  0  0  0  0  0  0  0
    4.7435   -0.4756   -0.0131 H   0  0  0  0  0  0  0  0  0  0  0  0
    6.9018   -0.1381   -2.1692 H   0  0  0  0  0  0  0  0  0  0  0  0
    7.9985    0.7401   -0.0530 H   0  0  0  0  0  0  0  0  0  0  0  0
    8.1546   -1.0259   -0.1358 H   0  0  0  0  0  0  0  0  0  0  0  0
    6.9457   -0.2902    0.9333 H   0  0  0  0  0  0  0  0  0  0  0  0
   -2.5087    2.7448    3.9741 H   0  0  0  0  0  0  0  0  0  0  0  0
  1  2  1  0
  2  3  2  0
  3  4  1  0
  4  5  2  0
  5  6  1  0
  6  7  2  0
  6  8  1  0
  8  9  1  0
  9 10  1  0
 10 11  1  0
 11 12  1  0
 12 13  1  0
 13 14  2  0
 13 15  1  0
 15 16  2  0
 16 17  1  0
 17 18  2  0
 18 19  1  0
  9 20  1  0
 20 21  2  0
 20 22  1  0
  1 23  1  0
  1 24  1  0
  1 25  1  0
  2 26  1  0
  3 27  1  0
  4 28  1  0
  5 29  1  0
  8 30  1  0
  9 31  1  1
 10 32  1  0
 10 33  1  0
 11 34  1  0
 11 35  1  0
 15 36  1  0
 16 37  1  0
 17 38  1  0
 18 39  1  0
 19 40  1  0
 19 41  1  0
 19 42  1  0
 22 43  1  0
M  END
$$$$
