
     RDKit          3D

 32 33  0  0  0  0  0  0  0  0999 V2000
    6.2414   -0.4340    0.9206 O   0  0  0  0  0  0  0  0  0  0  0  0
    5.0297   -0.2249    1.4721 C   0  0  0  0  0  0  0  0  0  0  0  0
    4.9254    0.0433    2.6563 O   0  0  0  0  0  0  0  0  0  0  0  0
    3.9232   -0.3656    0.4622 C   0  0  0  0  0  0  0  0  0  0  0  0
    2.5519   -0.1341    1.0944 C   0  0  0  0  0  0  0  0  0  0  0  0
    1.4306   -0.2755    0.0632 C   0  0  0  0  0  0  0  0  0  0  0  0
    0.0569   -0.0471    0.7051 C   0  0  0  0  0  0  0  0  0  0  0  0
   -1.1025   -0.0853   -0.2995 C   0  0  0  0  0  0  0  0  0  0  0  0
   -1.3671   -1.7368   -1.0193 S   0  0  0  0  0  0  0  0  0  0  0  0
   -3.1755   -1.6222   -1.0822 C   0  0  0  0  0  0  0  0  0  0  0  0
   -3.5727   -0.2795   -0.4963 C   0  0  0  0  0  0  0  0  0  0  0  0
   -3.8047    0.7906   -1.4427 N   0  0  0  0  0  0  0  0  0  0  0  0
   -3.4215    1.9966   -0.8701 C   0  0  0  0  0  0  0  0  0  0  0  0
   -3.6840    3.1053   -1.2924 O   0  0  0  0  0  0  0  0  0  0  0  0
   -2.6984    1.7081    0.2768 N   0  0  0  0  0  0  0  0  0  0  0  0
   -2.4403    0.2861    0.3665 C   0  0  0  0  0  0  0  0  0  0  0  0
    6.8662   -0.3158    1.6666 H   0  0  0  0  0  0  0  0  0  0  0  0
    3.9718   -1.3750    0.0393 H   0  0  0  0  0  0  0  0  0  0  0  0
    4.0930    0.3656   -0.3358 H   0  0  0  0  0  0  0  0  0  0  0  0
    2.3961   -0.8511    1.9102 H   0  0  0  0  0  0  0  0  0  0  0  0
    2.5173    0.8663    1.5438 H   0  0  0  0  0  0  0  0  0  0  0  0
    1.5830    0.4508   -0.7443 H   0  0  0  0  0  0  0  0  0  0  0  0
    1.4808   -1.2742   -0.3844 H   0  0  0  0  0  0  0  0  0  0  0  0
   -0.1046   -0.7848    1.5020 H   0  0  0  0  0  0  0  0  0  0  0  0
    0.0625    0.9369    1.1922 H   0  0  0  0  0  0  0  0  0  0  0  0
   -0.8773    0.5960   -1.1295 H   0  0  0  0  0  0  0  0  0  0  0  0
   -3.5346   -1.7565   -2.1067 H   0  0  0  0  0  0  0  0  0  0  0  0
   -3.5719   -2.4365   -0.4675 H   0  0  0  0  0  0  0  0  0  0  0  0
   -4.5024   -0.3718    0.0796 H   0  0  0  0  0  0  0  0  0  0  0  0
   -4.5610    0.8221   -2.1149 H   0  0  0  0  0  0  0  0  0  0  0  0
   -2.2059    2.4461    0.7637 H   0  0  0  0  0  0  0  0  0  0  0  0
   -2.5053   -0.0432    1.4090 H   0  0  0  0  0  0  0  0  0  0  0  0
  1  2  1  0
  2  3  2  0
  2  4  1  0
  4  5  1  0
  5  6  1  0
  6  7  1  0
  7  8  1  0
  8  9  1  0
  9 10  1  0
 10 11  1  0
 11 12  1  0
 12 13  1  0
 13 14  2  0
 13 15  1  0
 15 16  1  0
 16  8  1  0
 16 11  1  0
  1 17  1  0
  4 18  1  0
  4 19  1  0
  5 20  1  0
  5 21  1  0
  6 22  1  0
  6 23  1  0
  7 24  1  0
  7 25  1  0
  8 26  1  0
 10 27  1  0
 10 28  1  0
 11 29  1  0
 12 30  1  0
 15 31  1  0
 16 32  1  0
M  END
$$$$
