
     RDKit          3D

 77 80  0  0  0  0  0  0  0  0999 V2000
    3.5082    1.6989    1.0894 C   0  0  0  0  0  0  0  0  0  0  0  0
    2.5391    0.5405    0.8046 C   0  0  2  0  0  0  0  0  0  0  0  0
    3.2116   -0.5410   -0.0716 C   0  0  0  0  0  0  0  0  0  0  0  0
    4.2863   -1.4249    0.6060 C   0  0  0  0  0  0  0  0  0  0  0  0
    5.7049   -0.8569    0.8596 C   0  0  1  0  0  0  0  0  0  0  0  0
    6.3243   -1.6823    2.0178 C   0  0  0  0  0  0  0  0  0  0  0  0
    6.6693   -0.8705   -0.3633 C   0  0  0  0  0  0  0  0  0  0  0  0
    7.9587   -0.0853   -0.0644 C   0  0  0  0  0  0  0  0  0  0  0  0
    6.0576   -0.3105   -1.6507 C   0  0  0  0  0  0  0  0  0  0  0  0
    1.2029    1.1333    0.2692 C   0  0  1  0  0  0  0  0  0  0  0  0
    1.2670    2.0639   -0.9693 C   0  0  0  0  0  0  0  0  0  0  0  0
   -0.1968    2.1768   -1.4797 C   0  0  0  0  0  0  0  0  0  0  0  0
   -1.0112    1.3731   -0.4609 C   0  0  2  0  0  0  0  0  0  0  0  0
   -0.0351    0.2443   -0.0380 C   0  0  2  0  0  0  0  0  0  0  0  0
   -0.6287   -0.4653    1.1847 C   0  0  0  0  0  0  0  0  0  0  0  0
   -2.0238   -1.0273    0.8660 C   0  0  0  0  0  0  0  0  0  0  0  0
   -3.0151    0.0597    0.3594 C   0  0  1  0  0  0  0  0  0  0  0  0
   -2.4260    0.8785   -0.8296 C   0  0  1  0  0  0  0  0  0  0  0  0
   -3.3503    2.0595   -1.1623 C   0  0  0  0  0  0  0  0  0  0  0  0
   -4.8045    1.7035   -1.1583 C   0  0  0  0  0  0  0  0  0  0  0  0
   -5.3191    0.5701   -0.6412 C   0  0  0  0  0  0  0  0  0  0  0  0
   -4.4579   -0.4982    0.0460 C   0  0  2  0  0  0  0  0  0  0  0  0
   -5.1223   -0.9529    1.3940 C   0  0  0  0  0  0  0  0  0  0  0  0
   -6.4244   -0.2259    1.7450 C   0  0  0  0  0  0  0  0  0  0  0  0
   -7.4077   -0.2682    0.5826 C   0  0  1  0  0  0  0  0  0  0  0  0
   -6.8141    0.3159   -0.7073 C   0  0  0  0  0  0  0  0  0  0  0  0
   -7.7886   -1.6341    0.3772 O   0  0  0  0  0  0  0  0  0  0  0  0
   -4.3959   -1.7116   -0.9120 C   0  0  0  0  0  0  0  0  0  0  0  0
    0.1887   -0.7780   -1.1884 C   0  0  0  0  0  0  0  0  0  0  0  0
    4.1063    1.9485    0.2024 H   0  0  0  0  0  0  0  0  0  0  0  0
    4.1855    1.4493    1.9081 H   0  0  0  0  0  0  0  0  0  0  0  0
    2.9804    2.6094    1.4027 H   0  0  0  0  0  0  0  0  0  0  0  0
    2.2980    0.0769    1.7704 H   0  0  0  0  0  0  0  0  0  0  0  0
    3.5688   -0.1000   -1.0028 H   0  0  0  0  0  0  0  0  0  0  0  0
    2.4494   -1.2646   -0.3558 H   0  0  0  0  0  0  0  0  0  0  0  0
    4.3961   -2.3373    0.0001 H   0  0  0  0  0  0  0  0  0  0  0  0
    3.8550   -1.7688    1.5549 H   0  0  0  0  0  0  0  0  0  0  0  0
    5.6228    0.1666    1.2189 H   0  0  0  0  0  0  0  0  0  0  0  0
    6.5029   -2.7212    1.7033 H   0  0  0  0  0  0  0  0  0  0  0  0
    5.6609   -1.6951    2.8898 H   0  0  0  0  0  0  0  0  0  0  0  0
    7.2742   -1.2543    2.3511 H   0  0  0  0  0  0  0  0  0  0  0  0
    6.9588   -1.9121   -0.5751 H   0  0  0  0  0  0  0  0  0  0  0  0
    8.5459   -0.5613    0.7286 H   0  0  0  0  0  0  0  0  0  0  0  0
    8.6035   -0.0356   -0.9500 H   0  0  0  0  0  0  0  0  0  0  0  0
    7.7343    0.9439    0.2441 H   0  0  0  0  0  0  0  0  0  0  0  0
    5.2715   -0.9713   -2.0300 H   0  0  0  0  0  0  0  0  0  0  0  0
    5.6435    0.6934   -1.4863 H   0  0  0  0  0  0  0  0  0  0  0  0
    6.8138   -0.2354   -2.4460 H   0  0  0  0  0  0  0  0  0  0  0  0
    0.8856    1.7913    1.0984 H   0  0  0  0  0  0  0  0  0  0  0  0
    1.9081    1.6547   -1.7566 H   0  0  0  0  0  0  0  0  0  0  0  0
    1.6586    3.0545   -0.7056 H   0  0  0  0  0  0  0  0  0  0  0  0
   -0.2748    1.7555   -2.4904 H   0  0  0  0  0  0  0  0  0  0  0  0
   -0.5208    3.2220   -1.5256 H   0  0  0  0  0  0  0  0  0  0  0  0
   -1.1539    2.0435    0.4045 H   0  0  0  0  0  0  0  0  0  0  0  0
   -0.7092    0.2296    2.0307 H   0  0  0  0  0  0  0  0  0  0  0  0
    0.0289   -1.2775    1.5152 H   0  0  0  0  0  0  0  0  0  0  0  0
   -2.4110   -1.5119    1.7684 H   0  0  0  0  0  0  0  0  0  0  0  0
   -1.9097   -1.8162    0.1160 H   0  0  0  0  0  0  0  0  0  0  0  0
   -3.1262    0.7733    1.1930 H   0  0  0  0  0  0  0  0  0  0  0  0
   -2.3746    0.2467   -1.7198 H   0  0  0  0  0  0  0  0  0  0  0  0
   -3.0849    2.4610   -2.1517 H   0  0  0  0  0  0  0  0  0  0  0  0
   -3.2107    2.8795   -0.4457 H   0  0  0  0  0  0  0  0  0  0  0  0
   -5.4651    2.4362   -1.6122 H   0  0  0  0  0  0  0  0  0  0  0  0
   -4.4456   -0.8067    2.2425 H   0  0  0  0  0  0  0  0  0  0  0  0
   -5.3151   -2.0331    1.3707 H   0  0  0  0  0  0  0  0  0  0  0  0
   -6.8647   -0.7044    2.6255 H   0  0  0  0  0  0  0  0  0  0  0  0
   -6.2052    0.8137    2.0185 H   0  0  0  0  0  0  0  0  0  0  0  0
   -8.3178    0.2731    0.8560 H   0  0  0  0  0  0  0  0  0  0  0  0
   -7.3380    1.2594   -0.9199 H   0  0  0  0  0  0  0  0  0  0  0  0
   -7.0267   -0.3445   -1.5564 H   0  0  0  0  0  0  0  0  0  0  0  0
   -8.4661   -1.6483   -0.3216 H   0  0  0  0  0  0  0  0  0  0  0  0
   -3.8674   -2.5620   -0.4650 H   0  0  0  0  0  0  0  0  0  0  0  0
   -5.3969   -2.0786   -1.1713 H   0  0  0  0  0  0  0  0  0  0  0  0
   -3.8951   -1.4604   -1.8569 H   0  0  0  0  0  0  0  0  0  0  0  0
   -0.7262   -0.9929   -1.7511 H   0  0  0  0  0  0  0  0  0  0  0  0
    0.5293   -1.7441   -0.8008 H   0  0  0  0  0  0  0  0  0  0  0  0
    0.9261   -0.4294   -1.9206 H   0  0  0  0  0  0  0  0  0  0  0  0
  1  2  1  0
  2  3  1  0
  3  4  1  0
  4  5  1  0
  5  6  1  0
  5  7  1  0
  7  8  1  0
  7  9  1  0
  2 10  1  0
 10 11  1  0
 11 12  1  0
 12 13  1  0
 13 14  1  0
 14 15  1  0
 15 16  1  0
 16 17  1  0
 17 18  1  0
 18 19  1  0
 19 20  1  0
 20 21  2  0
 21 22  1  0
 22 23  1  0
 23 24  1  0
 24 25  1  0
 25 26  1  0
 25 27  1  0
 22 28  1  6
 14 29  1  6
 14 10  1  0
 18 13  1  0
 22 17  1  0
 26 21  1  0
  1 30  1  0
  1 31  1  0
  1 32  1  0
  2 33  1  1
  3 34  1  0
  3 35  1  0
  4 36  1  0
  4 37  1  0
  5 38  1  1
  6 39  1  0
  6 40  1  0
  6 41  1  0
  7 42  1  0
  8 43  1  0
  8 44  1  0
  8 45  1  0
  9 46  1  0
  9 47  1  0
  9 48  1  0
 10 49  1  1
 11 50  1  0
 11 51  1  0
 12 52  1  0
 12 53  1  0
 13 54  1  1
 15 55  1  0
 15 56  1  0
 16 57  1  0
 16 58  1  0
 17 59  1  1
 18 60  1  6
 19 61  1  0
 19 62  1  0
 20 63  1  0
 23 64  1  0
 23 65  1  0
 24 66  1  0
 24 67  1  0
 25 68  1  1
 26 69  1  0
 26 70  1  0
 27 71  1  0
 28 72  1  0
 28 73  1  0
 28 74  1  0
 29 75  1  0
 29 76  1  0
 29 77  1  0
M  END
$$$$
