
     RDKit          3D

  8  7  0  0  0  0  0  0  0  0999 V2000
   -0.9525   -0.1433   -0.0172 C   0  0  0  0  0  0  0  0  0  0  0  0
    0.4639    0.3278   -0.0309 C   0  0  0  0  0  0  0  0  0  0  0  0
    0.8462    1.4741   -0.1900 O   0  0  0  0  0  0  0  0  0  0  0  0
    1.3405   -0.6756    0.1579 O   0  0  0  0  0  0  0  0  0  0  0  0
   -1.1840   -0.5931    0.9514 H   0  0  0  0  0  0  0  0  0  0  0  0
   -1.1112   -0.8636   -0.8235 H   0  0  0  0  0  0  0  0  0  0  0  0
   -1.6188    0.7096   -0.1745 H   0  0  0  0  0  0  0  0  0  0  0  0
    2.2160   -0.2359    0.1268 H   0  0  0  0  0  0  0  0  0  0  0  0
  1  2  1  0
  2  3  2  0
  2  4  1  0
  1  5  1  0
  1  6  1  0
  1  7  1  0
  4  8  1  0
M  END
$$$$
