
     RDKit          3D

 46 48  0  0  0  0  0  0  0  0999 V2000
   -2.7475   -1.5694    2.9048 C   0  0  0  0  0  0  0  0  0  0  0  0
   -2.2930   -1.3825    1.4619 C   0  0  0  0  0  0  0  0  0  0  0  0
   -2.1901    0.1052    1.1017 C   0  0  0  0  0  0  0  0  0  0  0  0
   -1.7904    0.3418   -0.2980 N   0  0  0  0  0  0  0  0  0  0  0  0
   -1.8853    1.7315   -0.7477 C   0  0  0  0  0  0  0  0  0  0  0  0
   -3.1977    1.9422   -1.4489 C   0  0  0  0  0  0  0  0  0  0  0  0
   -3.4835    3.2540   -2.1357 C   0  0  0  0  0  0  0  0  0  0  0  0
   -3.2659    2.0100   -2.9555 C   0  0  0  0  0  0  0  0  0  0  0  0
   -0.6269   -0.3022   -0.7359 C   0  0  0  0  0  0  0  0  0  0  0  0
   -0.8531   -1.1956   -1.7200 N   0  0  0  0  0  0  0  0  0  0  0  0
    0.1911   -1.8944   -2.1843 C   0  0  0  0  0  0  0  0  0  0  0  0
    1.4452   -1.8058   -1.7086 N   0  0  0  0  0  0  0  0  0  0  0  0
    1.6768   -0.8892   -0.7435 C   0  0  0  0  0  0  0  0  0  0  0  0
    0.6624   -0.0731   -0.2365 C   0  0  0  0  0  0  0  0  0  0  0  0
    0.9559    1.2085    0.8947 Cl  0  0  0  0  0  0  0  0  0  0  0  0
    3.0407   -0.8291   -0.4075 N   0  0  0  0  0  0  0  0  0  0  0  0
    3.6773   -0.3105    0.7382 C   0  0  0  0  0  0  0  0  0  0  0  0
    4.5173    0.8213    0.6143 C   0  0  0  0  0  0  0  0  0  0  0  0
    5.1772    1.3623    1.7201 C   0  0  0  0  0  0  0  0  0  0  0  0
    5.0393    0.7501    2.9636 C   0  0  0  0  0  0  0  0  0  0  0  0
    4.2664   -0.3990    3.1084 C   0  0  0  0  0  0  0  0  0  0  0  0
    3.6012   -0.9329    1.9963 C   0  0  0  0  0  0  0  0  0  0  0  0
    2.6732   -2.3754    2.2313 Cl  0  0  0  0  0  0  0  0  0  0  0  0
    5.8453    1.4222    4.3297 Cl  0  0  0  0  0  0  0  0  0  0  0  0
    4.7238    1.6089   -0.9146 Cl  0  0  0  0  0  0  0  0  0  0  0  0
   -0.0629   -2.8116   -3.3403 C   0  0  0  0  0  0  0  0  0  0  0  0
   -2.0705   -1.0642    3.5985 H   0  0  0  0  0  0  0  0  0  0  0  0
   -3.7556   -1.1684    3.0519 H   0  0  0  0  0  0  0  0  0  0  0  0
   -2.7588   -2.6319    3.1533 H   0  0  0  0  0  0  0  0  0  0  0  0
   -2.9893   -1.8863    0.7836 H   0  0  0  0  0  0  0  0  0  0  0  0
   -1.3160   -1.8711    1.3478 H   0  0  0  0  0  0  0  0  0  0  0  0
   -3.1842    0.5538    1.2483 H   0  0  0  0  0  0  0  0  0  0  0  0
   -1.5252    0.6208    1.8046 H   0  0  0  0  0  0  0  0  0  0  0  0
   -1.0649    2.0097   -1.4231 H   0  0  0  0  0  0  0  0  0  0  0  0
   -1.8252    2.4207    0.1038 H   0  0  0  0  0  0  0  0  0  0  0  0
   -4.0284    1.4737   -0.9274 H   0  0  0  0  0  0  0  0  0  0  0  0
   -4.4877    3.6502   -2.0771 H   0  0  0  0  0  0  0  0  0  0  0  0
   -2.7071    4.0082   -2.1496 H   0  0  0  0  0  0  0  0  0  0  0  0
   -2.3457    1.9179   -3.5191 H   0  0  0  0  0  0  0  0  0  0  0  0
   -4.1261    1.5679   -3.4433 H   0  0  0  0  0  0  0  0  0  0  0  0
    3.5029   -1.6269   -0.8298 H   0  0  0  0  0  0  0  0  0  0  0  0
    5.7930    2.2530    1.6136 H   0  0  0  0  0  0  0  0  0  0  0  0
    4.1823   -0.8802    4.0815 H   0  0  0  0  0  0  0  0  0  0  0  0
    0.8671   -3.2391   -3.7270 H   0  0  0  0  0  0  0  0  0  0  0  0
   -0.5443   -2.2590   -4.1510 H   0  0  0  0  0  0  0  0  0  0  0  0
   -0.7130   -3.6361   -3.0271 H   0  0  0  0  0  0  0  0  0  0  0  0
  1  2  1  0
  2  3  1  0
  3  4  1  0
  4  5  1  0
  5  6  1  0
  6  7  1  0
  7  8  1  0
  4  9  1  0
  9 10  2  0
 10 11  1  0
 11 12  2  0
 12 13  1  0
 13 14  2  0
 14 15  1  0
 13 16  1  0
 16 17  1  0
 17 18  2  0
 18 19  1  0
 19 20  2  0
 20 21  1  0
 21 22  2  0
 22 23  1  0
 20 24  1  0
 18 25  1  0
 11 26  1  0
  8  6  1  0
 14  9  1  0
 22 17  1  0
  1 27  1  0
  1 28  1  0
  1 29  1  0
  2 30  1  0
  2 31  1  0
  3 32  1  0
  3 33  1  0
  5 34  1  0
  5 35  1  0
  6 36  1  0
  7 37  1  0
  7 38  1  0
  8 39  1  0
  8 40  1  0
 16 41  1  0
 19 42  1  0
 21 43  1  0
 26 44  1  0
 26 45  1  0
 26 46  1  0
M  END
$$$$
