
     RDKit          3D

 43 46  0  0  0  0  0  0  0  0999 V2000
    7.1213   -0.2647   -1.3392 C   0  0  0  0  0  0  0  0  0  0  0  0
    6.8263    0.2277    0.3807 S   0  0  0  0  0  4  0  0  0  0  0  0
    7.2015    1.6793    0.5024 O   0  0  0  0  0  0  0  0  0  0  0  0
    5.0221    0.2032    0.2872 C   0  0  0  0  0  0  0  0  0  0  0  0
    4.2927    1.3787    0.0813 C   0  0  0  0  0  0  0  0  0  0  0  0
    2.8916    1.3441    0.0106 C   0  0  0  0  0  0  0  0  0  0  0  0
    2.1946    0.1346    0.1521 C   0  0  0  0  0  0  0  0  0  0  0  0
    2.9390   -1.0369    0.3679 C   0  0  0  0  0  0  0  0  0  0  0  0
    4.3363   -1.0046    0.4366 C   0  0  0  0  0  0  0  0  0  0  0  0
    0.7285    0.0503    0.1046 C   0  0  0  0  0  0  0  0  0  0  0  0
    0.0139   -1.0413    0.3051 N   0  0  0  0  0  0  0  0  0  0  0  0
   -1.3017   -0.6666    0.1800 C   0  0  0  0  0  0  0  0  0  0  0  0
   -1.4202    0.6894   -0.0796 C   0  0  0  0  0  0  0  0  0  0  0  0
   -0.1108    1.1124   -0.1395 N   0  0  0  0  0  0  0  0  0  0  0  0
   -2.5557    1.5914   -0.1902 C   0  0  0  0  0  0  0  0  0  0  0  0
   -3.4688    1.7027    0.8588 C   0  0  0  0  0  0  0  0  0  0  0  0
   -4.5412    2.5699    0.7098 C   0  0  0  0  0  0  0  0  0  0  0  0
   -4.7569    3.3153   -0.3961 N   0  0  0  0  0  0  0  0  0  0  0  0
   -3.8635    3.1817   -1.3978 C   0  0  0  0  0  0  0  0  0  0  0  0
   -2.7549    2.3480   -1.3464 C   0  0  0  0  0  0  0  0  0  0  0  0
   -2.3975   -1.5992    0.3430 C   0  0  0  0  0  0  0  0  0  0  0  0
   -2.4886   -2.3641    1.5159 C   0  0  0  0  0  0  0  0  0  0  0  0
   -3.5638   -3.2328    1.7017 C   0  0  0  0  0  0  0  0  0  0  0  0
   -4.5325   -3.3515    0.7057 C   0  0  0  0  0  0  0  0  0  0  0  0
   -4.4444   -2.6199   -0.4737 C   0  0  0  0  0  0  0  0  0  0  0  0
   -3.3752   -1.7431   -0.6562 C   0  0  0  0  0  0  0  0  0  0  0  0
   -5.5658   -4.1768    0.8902 F   0  0  0  0  0  0  0  0  0  0  0  0
    6.6214    0.4271   -2.0217 H   0  0  0  0  0  0  0  0  0  0  0  0
    8.1964   -0.2340   -1.5259 H   0  0  0  0  0  0  0  0  0  0  0  0
    6.7532   -1.2815   -1.4959 H   0  0  0  0  0  0  0  0  0  0  0  0
    4.8077    2.3312   -0.0208 H   0  0  0  0  0  0  0  0  0  0  0  0
    2.3748    2.2870   -0.1472 H   0  0  0  0  0  0  0  0  0  0  0  0
    2.4275   -1.9939    0.4912 H   0  0  0  0  0  0  0  0  0  0  0  0
    4.8785   -1.9316    0.6154 H   0  0  0  0  0  0  0  0  0  0  0  0
    0.1805    2.0676   -0.2911 H   0  0  0  0  0  0  0  0  0  0  0  0
   -3.3557    1.1354    1.7778 H   0  0  0  0  0  0  0  0  0  0  0  0
   -5.2703    2.6940    1.5022 H   0  0  0  0  0  0  0  0  0  0  0  0
   -4.0657    3.7837   -2.2785 H   0  0  0  0  0  0  0  0  0  0  0  0
   -2.0848    2.2804   -2.1989 H   0  0  0  0  0  0  0  0  0  0  0  0
   -1.7267   -2.2685    2.2846 H   0  0  0  0  0  0  0  0  0  0  0  0
   -3.6581   -3.8183    2.6145 H   0  0  0  0  0  0  0  0  0  0  0  0
   -5.2046   -2.7331   -1.2377 H   0  0  0  0  0  0  0  0  0  0  0  0
   -3.3002   -1.1724   -1.5830 H   0  0  0  0  0  0  0  0  0  0  0  0
  1  2  1  0
  2  3  2  0
  2  4  1  0
  4  5  2  0
  5  6  1  0
  6  7  2  0
  7  8  1  0
  8  9  2  0
  7 10  1  0
 10 11  2  0
 11 12  1  0
 12 13  2  0
 13 14  1  0
 13 15  1  0
 15 16  2  0
 16 17  1  0
 17 18  2  0
 18 19  1  0
 19 20  2  0
 12 21  1  0
 21 22  2  0
 22 23  1  0
 23 24  2  0
 24 25  1  0
 25 26  2  0
 24 27  1  0
  9  4  1  0
 14 10  1  0
 20 15  1  0
 26 21  1  0
  1 28  1  0
  1 29  1  0
  1 30  1  0
  5 31  1  0
  6 32  1  0
  8 33  1  0
  9 34  1  0
 14 35  1  0
 16 36  1  0
 17 37  1  0
 19 38  1  0
 20 39  1  0
 22 40  1  0
 23 41  1  0
 25 42  1  0
 26 43  1  0
M  END
$$$$
