
     RDKit          3D

 52 54  0  0  0  0  0  0  0  0999 V2000
   -0.1590    5.7859   -0.6519 C   0  0  0  0  0  0  0  0  0  0  0  0
    0.7674    5.2072   -1.5623 O   0  0  0  0  0  0  0  0  0  0  0  0
    1.6475    4.2721   -0.9375 C   0  0  0  0  0  0  0  0  0  0  0  0
    1.0224    2.8816   -0.8298 C   0  0  0  0  0  0  0  0  0  0  0  0
    1.9703    2.0060   -0.2186 O   0  0  0  0  0  0  0  0  0  0  0  0
    1.4885    0.8008    0.2249 C   0  0  0  0  0  0  0  0  0  0  0  0
    2.1647    0.2043    1.2970 C   0  0  0  0  0  0  0  0  0  0  0  0
    1.7105   -1.0196    1.7947 C   0  0  0  0  0  0  0  0  0  0  0  0
    0.6347   -1.6938    1.2299 C   0  0  0  0  0  0  0  0  0  0  0  0
   -0.0199   -1.1251    0.1299 C   0  0  0  0  0  0  0  0  0  0  0  0
    0.4126    0.1332   -0.3619 C   0  0  0  0  0  0  0  0  0  0  0  0
   -1.0939   -1.8746   -0.3947 C   0  0  0  0  0  0  0  0  0  0  0  0
   -1.4754   -3.0448    0.1475 N   0  0  0  0  0  0  0  0  0  0  0  0
   -0.7767   -3.4788    1.1991 C   0  0  0  0  0  0  0  0  0  0  0  0
    0.2675   -2.8628    1.7621 N   0  0  0  0  0  0  0  0  0  0  0  0
   -1.7772   -1.3804   -1.5404 N   0  0  0  0  0  0  0  0  0  0  0  0
   -3.0243   -1.7885   -2.0670 C   0  0  0  0  0  0  0  0  0  0  0  0
   -4.0498   -2.3096   -1.2683 C   0  0  0  0  0  0  0  0  0  0  0  0
   -5.2958   -2.6356   -1.8126 C   0  0  0  0  0  0  0  0  0  0  0  0
   -5.5446   -2.4195   -3.1661 C   0  0  0  0  0  0  0  0  0  0  0  0
   -4.5500   -1.8675   -3.9714 C   0  0  0  0  0  0  0  0  0  0  0  0
   -3.3044   -1.5433   -3.4212 C   0  0  0  0  0  0  0  0  0  0  0  0
   -4.8031   -1.6278   -5.3587 C   0  0  0  0  0  0  0  0  0  0  0  0
   -5.0184   -1.4220   -6.5221 C   0  0  0  0  0  0  0  0  0  0  0  0
    3.2007    0.9200    1.8356 O   0  0  0  0  0  0  0  0  0  0  0  0
    4.2507    0.2139    2.5112 C   0  0  0  0  0  0  0  0  0  0  0  0
    4.2036    0.4984    4.0180 C   0  0  0  0  0  0  0  0  0  0  0  0
    3.2485   -0.3223    4.6987 O   0  0  0  0  0  0  0  0  0  0  0  0
    3.7888   -1.5703    5.1163 C   0  0  0  0  0  0  0  0  0  0  0  0
    0.3686    6.3215    0.1432 H   0  0  0  0  0  0  0  0  0  0  0  0
   -0.8163    5.0245   -0.2228 H   0  0  0  0  0  0  0  0  0  0  0  0
   -0.7751    6.5029   -1.2025 H   0  0  0  0  0  0  0  0  0  0  0  0
    1.9828    4.6371    0.0409 H   0  0  0  0  0  0  0  0  0  0  0  0
    2.5468    4.2066   -1.5599 H   0  0  0  0  0  0  0  0  0  0  0  0
    0.7715    2.5287   -1.8371 H   0  0  0  0  0  0  0  0  0  0  0  0
    0.1015    2.9313   -0.2373 H   0  0  0  0  0  0  0  0  0  0  0  0
    2.1728   -1.4708    2.6660 H   0  0  0  0  0  0  0  0  0  0  0  0
   -0.1089    0.5758   -1.2047 H   0  0  0  0  0  0  0  0  0  0  0  0
   -1.0836   -4.4228    1.6361 H   0  0  0  0  0  0  0  0  0  0  0  0
   -1.0993   -1.2192   -2.2783 H   0  0  0  0  0  0  0  0  0  0  0  0
   -3.8920   -2.4692   -0.2041 H   0  0  0  0  0  0  0  0  0  0  0  0
   -6.0703   -3.0560   -1.1753 H   0  0  0  0  0  0  0  0  0  0  0  0
   -6.5156   -2.6753   -3.5825 H   0  0  0  0  0  0  0  0  0  0  0  0
   -2.5460   -1.1012   -4.0621 H   0  0  0  0  0  0  0  0  0  0  0  0
   -5.2159   -1.2310   -7.5519 H   0  0  0  0  0  0  0  0  0  0  0  0
    4.2681   -0.8557    2.2758 H   0  0  0  0  0  0  0  0  0  0  0  0
    5.1845    0.6345    2.1173 H   0  0  0  0  0  0  0  0  0  0  0  0
    3.8992    1.5376    4.1862 H   0  0  0  0  0  0  0  0  0  0  0  0
    5.1956    0.3618    4.4680 H   0  0  0  0  0  0  0  0  0  0  0  0
    4.1839   -2.1330    4.2640 H   0  0  0  0  0  0  0  0  0  0  0  0
    4.5764   -1.4135    5.8619 H   0  0  0  0  0  0  0  0  0  0  0  0
    2.9857   -2.1518    5.5785 H   0  0  0  0  0  0  0  0  0  0  0  0
  1  2  1  0
  2  3  1  0
  3  4  1  0
  4  5  1  0
  5  6  1  0
  6  7  2  0
  7  8  1  0
  8  9  2  0
  9 10  1  0
 10 11  2  0
 10 12  1  0
 12 13  2  0
 13 14  1  0
 14 15  2  0
 12 16  1  0
 16 17  1  0
 17 18  2  0
 18 19  1  0
 19 20  2  0
 20 21  1  0
 21 22  2  0
 21 23  1  0
 23 24  3  0
  7 25  1  0
 25 26  1  0
 26 27  1  0
 27 28  1  0
 28 29  1  0
 11  6  1  0
 15  9  1  0
 22 17  1  0
  1 30  1  0
  1 31  1  0
  1 32  1  0
  3 33  1  0
  3 34  1  0
  4 35  1  0
  4 36  1  0
  8 37  1  0
 11 38  1  0
 14 39  1  0
 16 40  1  0
 18 41  1  0
 19 42  1  0
 20 43  1  0
 22 44  1  0
 24 45  1  0
 26 46  1  0
 26 47  1  0
 27 48  1  0
 27 49  1  0
 29 50  1  0
 29 51  1  0
 29 52  1  0
M  END
$$$$
