
     RDKit          3D

 62 64  0  0  0  0  0  0  0  0999 V2000
    5.7032    2.1378    1.4016 C   0  0  0  0  0  0  0  0  0  0  0  0
    4.7473    2.2342    0.2233 C   0  0  0  0  0  0  0  0  0  0  0  0
    4.3241    0.8722   -0.3345 C   0  0  0  0  0  0  0  0  0  0  0  0
    3.5763    0.0097    0.6853 C   0  0  0  0  0  0  0  0  0  0  0  0
    2.8953   -1.1397    0.0871 N   0  0  0  0  0  0  0  0  0  0  0  0
    3.6645   -2.2776   -0.4132 C   0  0  0  0  0  0  0  0  0  0  0  0
    4.1419   -2.1858   -1.8549 C   0  0  0  0  0  0  0  0  0  0  0  0
    1.6362   -0.8939   -0.4434 C   0  0  0  0  0  0  0  0  0  0  0  0
    1.4769   -0.8496   -1.7878 N   0  0  0  0  0  0  0  0  0  0  0  0
    0.2718   -0.5682   -2.3189 C   0  0  0  0  0  0  0  0  0  0  0  0
   -0.8515   -0.3027   -1.6411 N   0  0  0  0  0  0  0  0  0  0  0  0
   -0.6890   -0.3837   -0.3072 C   0  0  0  0  0  0  0  0  0  0  0  0
    0.4933   -0.6729    0.3595 C   0  0  0  0  0  0  0  0  0  0  0  0
    0.1889   -0.6965    1.7642 C   0  0  0  0  0  0  0  0  0  0  0  0
   -1.1570   -0.3684    1.9037 C   0  0  0  0  0  0  0  0  0  0  0  0
   -1.6781   -0.1648    0.6331 N   0  0  0  0  0  0  0  0  0  0  0  0
   -3.0201    0.1808    0.3308 C   0  0  0  0  0  0  0  0  0  0  0  0
   -3.8921   -0.8117   -0.1643 C   0  0  0  0  0  0  0  0  0  0  0  0
   -5.2173   -0.4518   -0.4511 C   0  0  0  0  0  0  0  0  0  0  0  0
   -5.6821    0.8481   -0.2202 C   0  0  0  0  0  0  0  0  0  0  0  0
   -4.7959    1.8182    0.2640 C   0  0  0  0  0  0  0  0  0  0  0  0
   -3.4549    1.5070    0.5363 C   0  0  0  0  0  0  0  0  0  0  0  0
   -2.5419    2.5999    1.0234 C   0  0  0  0  0  0  0  0  0  0  0  0
   -7.0974    1.2158   -0.5562 C   0  0  0  0  0  0  0  0  0  0  0  0
   -3.4569   -2.2293   -0.4188 C   0  0  0  0  0  0  0  0  0  0  0  0
   -1.9801   -0.2727    3.1459 C   0  0  0  0  0  0  0  0  0  0  0  0
    1.1308   -1.0322    2.8690 C   0  0  0  0  0  0  0  0  0  0  0  0
    0.1928   -0.4949   -3.8132 C   0  0  0  0  0  0  0  0  0  0  0  0
    5.2180    1.6897    2.2743 H   0  0  0  0  0  0  0  0  0  0  0  0
    6.0456    3.1373    1.6900 H   0  0  0  0  0  0  0  0  0  0  0  0
    6.5828    1.5374    1.1476 H   0  0  0  0  0  0  0  0  0  0  0  0
    5.2351    2.7997   -0.5775 H   0  0  0  0  0  0  0  0  0  0  0  0
    3.8608    2.8051    0.5213 H   0  0  0  0  0  0  0  0  0  0  0  0
    5.2195    0.3419   -0.6790 H   0  0  0  0  0  0  0  0  0  0  0  0
    3.6967    1.0450   -1.2177 H   0  0  0  0  0  0  0  0  0  0  0  0
    2.8604    0.6381    1.2304 H   0  0  0  0  0  0  0  0  0  0  0  0
    4.2827   -0.3602    1.4401 H   0  0  0  0  0  0  0  0  0  0  0  0
    3.0662   -3.1901   -0.2962 H   0  0  0  0  0  0  0  0  0  0  0  0
    4.5406   -2.4156    0.2331 H   0  0  0  0  0  0  0  0  0  0  0  0
    3.3211   -2.3222   -2.5654 H   0  0  0  0  0  0  0  0  0  0  0  0
    4.8632   -2.9851   -2.0531 H   0  0  0  0  0  0  0  0  0  0  0  0
    4.6292   -1.2372   -2.0817 H   0  0  0  0  0  0  0  0  0  0  0  0
   -5.9001   -1.1978   -0.8546 H   0  0  0  0  0  0  0  0  0  0  0  0
   -5.1533    2.8354    0.4152 H   0  0  0  0  0  0  0  0  0  0  0  0
   -1.5774    2.5677    0.5071 H   0  0  0  0  0  0  0  0  0  0  0  0
   -2.3840    2.5136    2.1015 H   0  0  0  0  0  0  0  0  0  0  0  0
   -2.9696    3.5886    0.8249 H   0  0  0  0  0  0  0  0  0  0  0  0
   -7.7604    0.3494   -0.4597 H   0  0  0  0  0  0  0  0  0  0  0  0
   -7.1527    1.5897   -1.5840 H   0  0  0  0  0  0  0  0  0  0  0  0
   -7.4736    1.9884    0.1240 H   0  0  0  0  0  0  0  0  0  0  0  0
   -4.3211   -2.9011   -0.4877 H   0  0  0  0  0  0  0  0  0  0  0  0
   -2.8342   -2.6079    0.3996 H   0  0  0  0  0  0  0  0  0  0  0  0
   -2.9030   -2.2938   -1.3613 H   0  0  0  0  0  0  0  0  0  0  0  0
   -1.8304    0.7003    3.6237 H   0  0  0  0  0  0  0  0  0  0  0  0
   -3.0490   -0.4057    2.9554 H   0  0  0  0  0  0  0  0  0  0  0  0
   -1.6892   -1.0480    3.8618 H   0  0  0  0  0  0  0  0  0  0  0  0
    0.6013   -1.4431    3.7349 H   0  0  0  0  0  0  0  0  0  0  0  0
    1.8598   -1.7859    2.5564 H   0  0  0  0  0  0  0  0  0  0  0  0
    1.6679   -0.1363    3.1961 H   0  0  0  0  0  0  0  0  0  0  0  0
    0.3430    0.5388   -4.1390 H   0  0  0  0  0  0  0  0  0  0  0  0
    0.9606   -1.1256   -4.2723 H   0  0  0  0  0  0  0  0  0  0  0  0
   -0.7861   -0.8378   -4.1628 H   0  0  0  0  0  0  0  0  0  0  0  0
  1  2  1  0
  2  3  1  0
  3  4  1  0
  4  5  1  0
  5  6  1  0
  6  7  1  0
  5  8  1  0
  8  9  2  0
  9 10  1  0
 10 11  2  0
 11 12  1  0
 12 13  2  0
 13 14  1  0
 14 15  2  0
 15 16  1  0
 16 17  1  0
 17 18  2  0
 18 19  1  0
 19 20  2  0
 20 21  1  0
 21 22  2  0
 22 23  1  0
 20 24  1  0
 18 25  1  0
 15 26  1  0
 14 27  1  0
 10 28  1  0
 13  8  1  0
 16 12  1  0
 22 17  1  0
  1 29  1  0
  1 30  1  0
  1 31  1  0
  2 32  1  0
  2 33  1  0
  3 34  1  0
  3 35  1  0
  4 36  1  0
  4 37  1  0
  6 38  1  0
  6 39  1  0
  7 40  1  0
  7 41  1  0
  7 42  1  0
 19 43  1  0
 21 44  1  0
 23 45  1  0
 23 46  1  0
 23 47  1  0
 24 48  1  0
 24 49  1  0
 24 50  1  0
 25 51  1  0
 25 52  1  0
 25 53  1  0
 26 54  1  0
 26 55  1  0
 26 56  1  0
 27 57  1  0
 27 58  1  0
 27 59  1  0
 28 60  1  0
 28 61  1  0
 28 62  1  0
M  END
$$$$
