
     RDKit          3D

 45 47  0  0  0  0  0  0  0  0999 V2000
    8.3376    0.1475    1.5093 C   0  0  0  0  0  0  0  0  0  0  0  0
    7.0315   -0.2430    0.9350 C   0  0  0  0  0  0  0  0  0  0  0  0
    6.4639   -1.4042    1.2830 N   0  0  0  0  0  0  0  0  0  0  0  0
    5.2705   -1.4628    0.5858 O   0  0  0  0  0  0  0  0  0  0  0  0
    5.1351   -0.3433   -0.1745 C   0  0  0  0  0  0  0  0  0  0  0  0
    6.2298    0.4643    0.0114 C   0  0  0  0  0  0  0  0  0  0  0  0
    3.9038   -0.2450   -0.9937 C   0  0  0  0  0  0  0  0  0  0  0  0
    2.8057    0.5258   -0.2591 C   0  0  0  0  0  0  0  0  0  0  0  0
    1.5333    0.7068   -1.0926 C   0  0  0  0  0  0  0  0  0  0  0  0
    0.8109   -0.5872   -1.4895 C   0  0  0  0  0  0  0  0  0  0  0  0
    0.3747   -1.4590   -0.3096 C   0  0  0  0  0  0  0  0  0  0  0  0
   -0.3577   -0.7149    0.6602 O   0  0  0  0  0  0  0  0  0  0  0  0
   -1.6957   -0.4872    0.4877 C   0  0  0  0  0  0  0  0  0  0  0  0
   -2.3200    0.3330    1.4444 C   0  0  0  0  0  0  0  0  0  0  0  0
   -3.6838    0.6267    1.3626 C   0  0  0  0  0  0  0  0  0  0  0  0
   -4.4476    0.1018    0.3179 C   0  0  0  0  0  0  0  0  0  0  0  0
   -3.8367   -0.7153   -0.6387 C   0  0  0  0  0  0  0  0  0  0  0  0
   -2.4693   -1.0076   -0.5533 C   0  0  0  0  0  0  0  0  0  0  0  0
   -5.8835    0.4261    0.2525 C   0  0  0  0  0  0  0  0  0  0  0  0
   -6.5326    1.1708    1.0905 N   0  0  0  0  0  0  0  0  0  0  0  0
   -7.9166    1.0995    0.6072 C   0  0  0  0  0  0  0  0  0  0  0  0
   -7.8213    0.4865   -0.7710 C   0  0  0  0  0  0  0  0  0  0  0  0
   -6.5388   -0.1217   -0.7988 O   0  0  0  0  0  0  0  0  0  0  0  0
   -1.4256    1.0203    2.7577 Cl  0  0  0  0  0  0  0  0  0  0  0  0
    8.6627    1.1198    1.1255 H   0  0  0  0  0  0  0  0  0  0  0  0
    9.1059   -0.5899    1.2556 H   0  0  0  0  0  0  0  0  0  0  0  0
    8.2728    0.2194    2.5998 H   0  0  0  0  0  0  0  0  0  0  0  0
    6.4210    1.4224   -0.4474 H   0  0  0  0  0  0  0  0  0  0  0  0
    4.1387    0.2555   -1.9407 H   0  0  0  0  0  0  0  0  0  0  0  0
    3.5601   -1.2546   -1.2449 H   0  0  0  0  0  0  0  0  0  0  0  0
    3.1813    1.5231    0.0060 H   0  0  0  0  0  0  0  0  0  0  0  0
    2.5685    0.0340    0.6920 H   0  0  0  0  0  0  0  0  0  0  0  0
    0.8411    1.3480   -0.5330 H   0  0  0  0  0  0  0  0  0  0  0  0
    1.7833    1.2579   -2.0078 H   0  0  0  0  0  0  0  0  0  0  0  0
   -0.0729   -0.2987   -2.0705 H   0  0  0  0  0  0  0  0  0  0  0  0
    1.4384   -1.1808   -2.1633 H   0  0  0  0  0  0  0  0  0  0  0  0
    1.2654   -1.8420    0.2012 H   0  0  0  0  0  0  0  0  0  0  0  0
   -0.1668   -2.3523   -0.6398 H   0  0  0  0  0  0  0  0  0  0  0  0
   -4.1486    1.2638    2.1121 H   0  0  0  0  0  0  0  0  0  0  0  0
   -4.4145   -1.1351   -1.4595 H   0  0  0  0  0  0  0  0  0  0  0  0
   -2.0466   -1.6463   -1.3214 H   0  0  0  0  0  0  0  0  0  0  0  0
   -8.3822    2.0891    0.5756 H   0  0  0  0  0  0  0  0  0  0  0  0
   -8.5042    0.4672    1.2819 H   0  0  0  0  0  0  0  0  0  0  0  0
   -7.8703    1.2425   -1.5618 H   0  0  0  0  0  0  0  0  0  0  0  0
   -8.6006   -0.2609   -0.9458 H   0  0  0  0  0  0  0  0  0  0  0  0
  1  2  1  0
  2  3  2  0
  3  4  1  0
  4  5  1  0
  5  6  2  0
  5  7  1  0
  7  8  1  0
  8  9  1  0
  9 10  1  0
 10 11  1  0
 11 12  1  0
 12 13  1  0
 13 14  2  0
 14 15  1  0
 15 16  2  0
 16 17  1  0
 17 18  2  0
 16 19  1  0
 19 20  2  0
 20 21  1  0
 21 22  1  0
 22 23  1  0
 14 24  1  0
  6  2  1  0
 18 13  1  0
 23 19  1  0
  1 25  1  0
  1 26  1  0
  1 27  1  0
  6 28  1  0
  7 29  1  0
  7 30  1  0
  8 31  1  0
  8 32  1  0
  9 33  1  0
  9 34  1  0
 10 35  1  0
 10 36  1  0
 11 37  1  0
 11 38  1  0
 15 39  1  0
 17 40  1  0
 18 41  1  0
 21 42  1  0
 21 43  1  0
 22 44  1  0
 22 45  1  0
M  END
$$$$
