
     RDKit          3D

 43 44  0  0  0  0  0  0  0  0999 V2000
   -4.7134    0.1652    0.1587 C   0  0  0  0  0  0  0  0  0  0  0  0
   -4.0528   -0.8322   -0.7931 C   0  0  2  0  0  0  0  0  0  0  0  0
   -2.5136   -0.7713   -0.7959 C   0  0  2  0  0  0  0  0  0  0  0  0
   -1.9922    0.5534   -0.2290 C   0  0  1  0  0  0  0  0  0  0  0  0
   -2.4630    0.7631    1.2176 C   0  0  0  0  0  0  0  0  0  0  0  0
   -3.9363    0.3893    1.4548 C   0  0  2  0  0  0  0  0  0  0  0  0
   -4.0857   -0.8379    2.3693 C   0  0  0  0  0  0  0  0  0  0  0  0
   -4.8438   -0.9157    3.3249 O   0  0  0  0  0  0  0  0  0  0  0  0
   -3.3343   -1.8952    2.0124 O   0  0  0  0  0  0  0  0  0  0  0  0
   -4.5478    1.4995    2.1366 O   0  0  0  0  0  0  0  0  0  0  0  0
   -0.5458    0.4892   -0.2667 O   0  0  0  0  0  0  0  0  0  0  0  0
    0.1032    1.6787   -0.2660 C   0  0  0  0  0  0  0  0  0  0  0  0
   -0.4169    2.7829   -0.2513 O   0  0  0  0  0  0  0  0  0  0  0  0
    1.5699    1.5048   -0.2956 C   0  0  0  0  0  0  0  0  0  0  0  0
    2.1947    0.3168   -0.2884 C   0  0  0  0  0  0  0  0  0  0  0  0
    3.6565    0.1606   -0.3052 C   0  0  0  0  0  0  0  0  0  0  0  0
    4.2255   -0.9083    0.3996 C   0  0  0  0  0  0  0  0  0  0  0  0
    5.6017   -1.0945    0.3762 C   0  0  0  0  0  0  0  0  0  0  0  0
    6.4273   -0.2395   -0.3472 C   0  0  0  0  0  0  0  0  0  0  0  0
    5.8826    0.8161   -1.0652 C   0  0  0  0  0  0  0  0  0  0  0  0
    4.4959    1.0104   -1.0470 C   0  0  0  0  0  0  0  0  0  0  0  0
    7.7720   -0.4835   -0.3248 O   0  0  0  0  0  0  0  0  0  0  0  0
    6.1435   -2.1357    1.0747 O   0  0  0  0  0  0  0  0  0  0  0  0
   -2.0424   -0.9729   -2.1404 O   0  0  0  0  0  0  0  0  0  0  0  0
   -4.5601   -0.5724   -2.1075 O   0  0  0  0  0  0  0  0  0  0  0  0
   -5.7391   -0.1652    0.3728 H   0  0  0  0  0  0  0  0  0  0  0  0
   -4.8498    1.1299   -0.3517 H   0  0  0  0  0  0  0  0  0  0  0  0
   -4.3632   -1.8531   -0.5437 H   0  0  0  0  0  0  0  0  0  0  0  0
   -2.1046   -1.5986   -0.2049 H   0  0  0  0  0  0  0  0  0  0  0  0
   -2.3312    1.3711   -0.8790 H   0  0  0  0  0  0  0  0  0  0  0  0
   -2.2860    1.8129    1.4865 H   0  0  0  0  0  0  0  0  0  0  0  0
   -1.8069    0.1996    1.8948 H   0  0  0  0  0  0  0  0  0  0  0  0
   -3.5500   -2.5778    2.6859 H   0  0  0  0  0  0  0  0  0  0  0  0
   -5.3424    1.1594    2.5939 H   0  0  0  0  0  0  0  0  0  0  0  0
    2.1154    2.4424   -0.3068 H   0  0  0  0  0  0  0  0  0  0  0  0
    1.6296   -0.6113   -0.2413 H   0  0  0  0  0  0  0  0  0  0  0  0
    3.6106   -1.5948    0.9751 H   0  0  0  0  0  0  0  0  0  0  0  0
    6.5065    1.4892   -1.6444 H   0  0  0  0  0  0  0  0  0  0  0  0
    4.0796    1.8289   -1.6305 H   0  0  0  0  0  0  0  0  0  0  0  0
    8.2128    0.1933   -0.8670 H   0  0  0  0  0  0  0  0  0  0  0  0
    7.1058   -2.0648    0.9139 H   0  0  0  0  0  0  0  0  0  0  0  0
   -1.0806   -0.8064   -2.1170 H   0  0  0  0  0  0  0  0  0  0  0  0
   -3.8313   -0.8254   -2.7151 H   0  0  0  0  0  0  0  0  0  0  0  0
  1  2  1  0
  2  3  1  0
  3  4  1  0
  4  5  1  0
  5  6  1  0
  6  7  1  0
  7  8  2  0
  7  9  1  0
  6 10  1  1
  4 11  1  0
 11 12  1  0
 12 13  2  0
 12 14  1  0
 14 15  2  0
 15 16  1  0
 16 17  2  0
 17 18  1  0
 18 19  2  0
 19 20  1  0
 20 21  2  0
 19 22  1  0
 18 23  1  0
  3 24  1  0
  2 25  1  0
  6  1  1  0
 21 16  1  0
  1 26  1  0
  1 27  1  0
  2 28  1  1
  3 29  1  1
  4 30  1  6
  5 31  1  0
  5 32  1  0
  9 33  1  0
 10 34  1  0
 14 35  1  0
 15 36  1  0
 17 37  1  0
 20 38  1  0
 21 39  1  0
 22 40  1  0
 23 41  1  0
 24 42  1  0
 25 43  1  0
M  END
$$$$
