
     RDKit          3D

 48 50  0  0  0  0  0  0  0  0999 V2000
   -3.9990   -1.7192   -0.2471 C   0  0  0  0  0  0  0  0  0  0  0  0
   -2.8648   -1.0818    0.5699 C   0  0  2  0  0  0  0  0  0  0  0  0
   -2.8480    0.4368    0.3385 C   0  0  0  0  0  0  0  0  0  0  0  0
   -2.1603    0.9350   -0.9369 C   0  0  2  0  0  0  0  0  0  0  0  0
   -0.6630    0.6437   -1.1741 C   0  0  1  0  0  0  0  0  0  0  0  0
   -0.2718    1.8856   -2.0016 C   0  0  1  0  0  0  0  0  0  0  0  0
   -1.1788    2.9514   -1.4570 C   0  0  0  0  0  0  0  0  0  0  0  0
   -1.0197    4.1566   -1.5461 O   0  0  0  0  0  0  0  0  0  0  0  0
   -2.2666    2.3696   -0.8866 O   0  0  0  0  0  0  0  0  0  0  0  0
    1.1714    2.3462   -2.0428 C   0  0  0  0  0  0  0  0  0  0  0  0
    0.1439    0.3223    0.1213 C   0  0  1  0  0  0  0  0  0  0  0  0
   -0.2695   -1.0086    0.8536 C   0  0  1  0  0  0  0  0  0  0  0  0
   -1.5116   -1.7168    0.2307 C   0  0  1  0  0  0  0  0  0  0  0  0
   -1.3261   -3.1675    0.5890 C   0  0  0  0  0  0  0  0  0  0  0  0
   -0.0495   -3.4779    0.8290 C   0  0  0  0  0  0  0  0  0  0  0  0
    0.6924   -2.2000    0.7968 C   0  0  0  0  0  0  0  0  0  0  0  0
    1.9121   -2.1842    0.8286 O   0  0  0  0  0  0  0  0  0  0  0  0
   -0.4145   -0.7373    2.3762 C   0  0  0  0  0  0  0  0  0  0  0  0
    1.5416    0.2651   -0.2253 O   0  0  0  0  0  0  0  0  0  0  0  0
    2.4224    0.7437    0.6969 C   0  0  0  0  0  0  0  0  0  0  0  0
    2.1137    1.2706    1.7561 O   0  0  0  0  0  0  0  0  0  0  0  0
    3.8344    0.6098    0.2348 C   0  0  0  0  0  0  0  0  0  0  0  0
    4.1741   -0.0949   -0.8579 C   0  0  0  0  0  0  0  0  0  0  0  0
    4.8505    1.3027    1.0909 C   0  0  0  0  0  0  0  0  0  0  0  0
   -4.9595   -1.2489   -0.0099 H   0  0  0  0  0  0  0  0  0  0  0  0
   -3.8281   -1.6116   -1.3233 H   0  0  0  0  0  0  0  0  0  0  0  0
   -4.0999   -2.7859   -0.0252 H   0  0  0  0  0  0  0  0  0  0  0  0
   -3.1009   -1.2586    1.6275 H   0  0  0  0  0  0  0  0  0  0  0  0
   -3.8801    0.8156    0.3459 H   0  0  0  0  0  0  0  0  0  0  0  0
   -2.3993    0.9437    1.1996 H   0  0  0  0  0  0  0  0  0  0  0  0
   -2.7406    0.6067   -1.8087 H   0  0  0  0  0  0  0  0  0  0  0  0
   -0.5329   -0.2113   -1.8492 H   0  0  0  0  0  0  0  0  0  0  0  0
   -0.5996    1.7190   -3.0378 H   0  0  0  0  0  0  0  0  0  0  0  0
    1.8327    1.5492   -2.3940 H   0  0  0  0  0  0  0  0  0  0  0  0
    1.2801    3.1844   -2.7414 H   0  0  0  0  0  0  0  0  0  0  0  0
    1.5131    2.7137   -1.0707 H   0  0  0  0  0  0  0  0  0  0  0  0
   -0.0243    1.1772    0.7896 H   0  0  0  0  0  0  0  0  0  0  0  0
   -1.4300   -1.7361   -0.8641 H   0  0  0  0  0  0  0  0  0  0  0  0
   -2.1122   -3.9097    0.5359 H   0  0  0  0  0  0  0  0  0  0  0  0
    0.4018   -4.4331    1.0305 H   0  0  0  0  0  0  0  0  0  0  0  0
   -1.0550    0.1204    2.5929 H   0  0  0  0  0  0  0  0  0  0  0  0
    0.5615   -0.5356    2.8316 H   0  0  0  0  0  0  0  0  0  0  0  0
   -0.8346   -1.5965    2.9122 H   0  0  0  0  0  0  0  0  0  0  0  0
    5.2099   -0.1884   -1.1674 H   0  0  0  0  0  0  0  0  0  0  0  0
    3.4384   -0.6203   -1.4587 H   0  0  0  0  0  0  0  0  0  0  0  0
    4.8358    0.8991    2.1087 H   0  0  0  0  0  0  0  0  0  0  0  0
    4.6435    2.3770    1.1378 H   0  0  0  0  0  0  0  0  0  0  0  0
    5.8666    1.1792    0.7010 H   0  0  0  0  0  0  0  0  0  0  0  0
  1  2  1  0
  2  3  1  0
  3  4  1  0
  4  5  1  0
  5  6  1  0
  6  7  1  0
  7  8  2  0
  7  9  1  0
  6 10  1  0
  5 11  1  0
 11 12  1  0
 12 13  1  0
 13 14  1  0
 14 15  2  0
 15 16  1  0
 16 17  2  0
 12 18  1  1
 11 19  1  0
 19 20  1  0
 20 21  2  0
 20 22  1  0
 22 23  2  3
 22 24  1  0
 13  2  1  0
  9  4  1  0
 16 12  1  0
  1 25  1  0
  1 26  1  0
  1 27  1  0
  2 28  1  1
  3 29  1  0
  3 30  1  0
  4 31  1  6
  5 32  1  6
  6 33  1  6
 10 34  1  0
 10 35  1  0
 10 36  1  0
 11 37  1  1
 13 38  1  6
 14 39  1  0
 15 40  1  0
 18 41  1  0
 18 42  1  0
 18 43  1  0
 23 44  1  0
 23 45  1  0
 24 46  1  0
 24 47  1  0
 24 48  1  0
M  END
$$$$
