
     RDKit          3D

 26 25  0  0  0  0  0  0  0  0999 V2000
    3.9115   -0.6081    1.2540 C   0  0  0  0  0  0  0  0  0  0  0  0
    2.4295   -0.4456    1.1251 C   0  0  0  0  0  0  0  0  0  0  0  0
    1.6038   -1.3384    1.2623 O   0  0  0  0  0  0  0  0  0  0  0  0
    2.1089    0.8392    0.7984 O   0  0  0  0  0  0  0  0  0  0  0  0
    0.6959    1.1047    0.7507 C   0  0  0  0  0  0  0  0  0  0  0  0
    0.0570    0.5325   -0.5287 C   0  0  0  0  0  0  0  0  0  0  0  0
   -1.3978    0.0414   -0.3612 N   0  0  0  0  0  4  0  0  0  0  0  0
   -2.2986    1.1286    0.2033 C   0  0  0  0  0  0  0  0  0  0  0  0
   -1.4455   -1.1985    0.5359 C   0  0  0  0  0  0  0  0  0  0  0  0
   -1.9228   -0.3592   -1.7421 C   0  0  0  0  0  0  0  0  0  0  0  0
    4.1360   -1.6255    1.5866 H   0  0  0  0  0  0  0  0  0  0  0  0
    4.2979    0.0917    1.9993 H   0  0  0  0  0  0  0  0  0  0  0  0
    4.3874   -0.4402    0.2849 H   0  0  0  0  0  0  0  0  0  0  0  0
    0.2378    0.7408    1.6756 H   0  0  0  0  0  0  0  0  0  0  0  0
    0.5772    2.1939    0.7578 H   0  0  0  0  0  0  0  0  0  0  0  0
    0.0378    1.3145   -1.2981 H   0  0  0  0  0  0  0  0  0  0  0  0
    0.6290   -0.3074   -0.9389 H   0  0  0  0  0  0  0  0  0  0  0  0
   -3.3272    0.7556    0.2137 H   0  0  0  0  0  0  0  0  0  0  0  0
   -2.2176    2.0107   -0.4384 H   0  0  0  0  0  0  0  0  0  0  0  0
   -1.9784    1.3631    1.2216 H   0  0  0  0  0  0  0  0  0  0  0  0
   -1.1384   -0.9221    1.5464 H   0  0  0  0  0  0  0  0  0  0  0  0
   -2.4762   -1.5661    0.5533 H   0  0  0  0  0  0  0  0  0  0  0  0
   -0.7808   -1.9572    0.1140 H   0  0  0  0  0  0  0  0  0  0  0  0
   -1.2757   -1.1443   -2.1445 H   0  0  0  0  0  0  0  0  0  0  0  0
   -1.9036    0.5235   -2.3882 H   0  0  0  0  0  0  0  0  0  0  0  0
   -2.9472   -0.7274   -1.6314 H   0  0  0  0  0  0  0  0  0  0  0  0
  1  2  1  0
  2  3  2  0
  2  4  1  0
  4  5  1  0
  5  6  1  0
  6  7  1  0
  7  8  1  0
  7  9  1  0
  7 10  1  0
  1 11  1  0
  1 12  1  0
  1 13  1  0
  5 14  1  0
  5 15  1  0
  6 16  1  0
  6 17  1  0
  8 18  1  0
  8 19  1  0
  8 20  1  0
  9 21  1  0
  9 22  1  0
  9 23  1  0
 10 24  1  0
 10 25  1  0
 10 26  1  0
M  CHG  1   7   1
M  END
$$$$
