
     RDKit          3D

 23 23  0  0  0  0  0  0  0  0999 V2000
    3.5856    1.0091   -0.4565 C   0  0  0  0  0  0  0  0  0  0  0  0
    2.4141    0.1293   -0.3446 N   0  0  0  0  0  0  0  0  0  0  0  0
    1.2106    0.8499   -0.7972 C   0  0  0  0  0  0  0  0  0  0  0  0
    0.1272   -0.1412   -1.2061 C   0  0  0  0  0  0  0  0  0  0  0  0
    0.2162   -0.7758   -2.2600 O   0  0  0  0  0  0  0  0  0  0  0  0
   -1.0891   -0.3232   -0.3531 C   0  0  0  0  0  0  0  0  0  0  0  0
   -2.1830   -1.0046   -0.9092 C   0  0  0  0  0  0  0  0  0  0  0  0
   -3.3504   -1.2016   -0.1688 C   0  0  0  0  0  0  0  0  0  0  0  0
   -3.4340   -0.7247    1.1365 C   0  0  0  0  0  0  0  0  0  0  0  0
   -2.3509   -0.0545    1.7023 C   0  0  0  0  0  0  0  0  0  0  0  0
   -1.1807    0.1462    0.9628 C   0  0  0  0  0  0  0  0  0  0  0  0
    2.2673   -0.4149    0.8454 N   0  0  0  0  0  0  0  0  0  0  0  0
    3.1936   -1.1907    1.1027 O   0  0  0  0  0  0  0  0  0  0  0  0
    3.7006    1.3692   -1.4860 H   0  0  0  0  0  0  0  0  0  0  0  0
    3.5089    1.8810    0.2050 H   0  0  0  0  0  0  0  0  0  0  0  0
    4.5160    0.4792   -0.2186 H   0  0  0  0  0  0  0  0  0  0  0  0
    0.8562    1.5896   -0.0710 H   0  0  0  0  0  0  0  0  0  0  0  0
    1.4237    1.4223   -1.7112 H   0  0  0  0  0  0  0  0  0  0  0  0
   -2.1315   -1.3881   -1.9271 H   0  0  0  0  0  0  0  0  0  0  0  0
   -4.1901   -1.7319   -0.6115 H   0  0  0  0  0  0  0  0  0  0  0  0
   -4.3399   -0.8833    1.7163 H   0  0  0  0  0  0  0  0  0  0  0  0
   -2.4141    0.3062    2.7267 H   0  0  0  0  0  0  0  0  0  0  0  0
   -0.3564    0.6526    1.4539 H   0  0  0  0  0  0  0  0  0  0  0  0
  1  2  1  0
  2  3  1  0
  3  4  1  0
  4  5  2  0
  4  6  1  0
  6  7  2  0
  7  8  1  0
  8  9  2  0
  9 10  1  0
 10 11  2  0
  2 12  1  0
 12 13  2  0
 11  6  1  0
  1 14  1  0
  1 15  1  0
  1 16  1  0
  3 17  1  0
  3 18  1  0
  7 19  1  0
  8 20  1  0
  9 21  1  0
 10 22  1  0
 11 23  1  0
M  END
$$$$
