
     RDKit          3D

 15 16  0  0  0  0  0  0  0  0999 V2000
   -1.4776   -1.9878   -0.1051 C   0  0  0  0  0  0  0  0  0  0  0  0
   -2.2289   -0.9097   -0.0649 N   0  0  0  0  0  0  0  0  0  0  0  0
   -1.3461    0.1337    0.0266 C   0  0  0  0  0  0  0  0  0  0  0  0
   -1.6768    1.4337    0.1128 N   0  0  0  0  0  0  0  0  0  0  0  0
   -0.6024    2.2282    0.2028 C   0  0  0  0  0  0  0  0  0  0  0  0
    0.7017    1.8747    0.1995 N   0  0  0  0  0  0  0  0  0  0  0  0
    1.0084    0.5717    0.1019 C   0  0  0  0  0  0  0  0  0  0  0  0
   -0.0398   -0.3193    0.0200 C   0  0  0  0  0  0  0  0  0  0  0  0
   -0.1457   -1.6796   -0.0524 N   0  0  0  0  0  0  0  0  0  0  0  0
    2.3444    0.2051    0.0790 N   0  0  0  0  0  0  0  0  0  0  0  0
   -1.8367   -3.0070   -0.1668 H   0  0  0  0  0  0  0  0  0  0  0  0
   -0.8036    3.2921    0.2862 H   0  0  0  0  0  0  0  0  0  0  0  0
    0.6203   -2.3375   -0.0399 H   0  0  0  0  0  0  0  0  0  0  0  0
    2.5678   -0.5373   -0.5685 H   0  0  0  0  0  0  0  0  0  0  0  0
    2.9152    1.0390   -0.0313 H   0  0  0  0  0  0  0  0  0  0  0  0
  1  2  2  0
  2  3  1  0
  3  4  2  0
  4  5  1  0
  5  6  2  0
  6  7  1  0
  7  8  2  0
  8  9  1  0
  7 10  1  0
  9  1  1  0
  8  3  1  0
  1 11  1  0
  5 12  1  0
  9 13  1  0
 10 14  1  0
 10 15  1  0
M  END
$$$$
