
     RDKit          3D

 48 51  0  0  0  0  0  0  0  0999 V2000
   -6.8255    1.3875   -1.0573 C   0  0  0  0  0  0  0  0  0  0  0  0
   -5.9327    0.2807   -0.9795 O   0  0  0  0  0  0  0  0  0  0  0  0
   -4.6033    0.5461   -0.7987 C   0  0  0  0  0  0  0  0  0  0  0  0
   -3.7559   -0.5651   -0.6567 C   0  0  0  0  0  0  0  0  0  0  0  0
   -2.3787   -0.4111   -0.3699 C   0  0  0  0  0  0  0  0  0  0  0  0
   -1.5293   -1.4954   -0.1320 C   0  0  0  0  0  0  0  0  0  0  0  0
   -0.2083   -1.3335    0.1270 N   0  0  0  0  0  4  0  0  0  0  0  0
    0.3556   -0.0927    0.1632 C   0  0  0  0  0  0  0  0  0  0  0  0
   -0.4666    1.0262   -0.0621 C   0  0  0  0  0  0  0  0  0  0  0  0
   -1.8361    0.8794   -0.3102 C   0  0  0  0  0  0  0  0  0  0  0  0
   -2.6751    1.9860   -0.4985 C   0  0  0  0  0  0  0  0  0  0  0  0
   -4.0471    1.8216   -0.7262 C   0  0  0  0  0  0  0  0  0  0  0  0
    1.8155   -0.0262    0.4048 C   0  0  0  0  0  0  0  0  0  0  0  0
    2.4659    1.1654    0.7888 C   0  0  0  0  0  0  0  0  0  0  0  0
    3.8575    1.2245    0.9678 C   0  0  0  0  0  0  0  0  0  0  0  0
    4.6340    0.0681    0.7962 C   0  0  0  0  0  0  0  0  0  0  0  0
    4.0101   -1.1239    0.4235 C   0  0  0  0  0  0  0  0  0  0  0  0
    2.6173   -1.1735    0.2377 C   0  0  0  0  0  0  0  0  0  0  0  0
    1.9633   -2.4545   -0.1907 C   0  0  0  0  0  0  0  0  0  0  0  0
    0.5894   -2.5446    0.4503 C   0  0  0  0  0  0  0  0  0  0  0  0
    5.9838    0.2155    0.9895 O   0  0  0  0  0  0  0  0  0  0  0  0
    6.7813   -0.9610    1.0429 C   0  0  0  0  0  0  0  0  0  0  0  0
    4.5373    2.3559    1.3422 O   0  0  0  0  0  0  0  0  0  0  0  0
    3.8972    3.6091    1.1474 C   0  0  0  0  0  0  0  0  0  0  0  0
   -4.2401   -1.8537   -0.7302 O   0  0  0  0  0  0  0  0  0  0  0  0
   -4.6246   -2.1817   -2.0737 C   0  0  0  0  0  0  0  0  0  0  0  0
   -7.8379    0.9917   -1.1812 H   0  0  0  0  0  0  0  0  0  0  0  0
   -6.8075    1.9736   -0.1335 H   0  0  0  0  0  0  0  0  0  0  0  0
   -6.6014    2.0111   -1.9295 H   0  0  0  0  0  0  0  0  0  0  0  0
   -1.9093   -2.5140   -0.1295 H   0  0  0  0  0  0  0  0  0  0  0  0
   -0.0432    2.0297   -0.0517 H   0  0  0  0  0  0  0  0  0  0  0  0
   -2.2784    3.0008   -0.4505 H   0  0  0  0  0  0  0  0  0  0  0  0
   -4.6518    2.7155   -0.8381 H   0  0  0  0  0  0  0  0  0  0  0  0
    1.8853    2.0633    0.9683 H   0  0  0  0  0  0  0  0  0  0  0  0
    4.5929   -2.0258    0.2572 H   0  0  0  0  0  0  0  0  0  0  0  0
    1.8793   -2.4637   -1.2812 H   0  0  0  0  0  0  0  0  0  0  0  0
    2.5584   -3.3228    0.1144 H   0  0  0  0  0  0  0  0  0  0  0  0
    0.6373   -2.5893    1.5455 H   0  0  0  0  0  0  0  0  0  0  0  0
    0.0621   -3.4313    0.0796 H   0  0  0  0  0  0  0  0  0  0  0  0
    7.8030   -0.6607    1.2907 H   0  0  0  0  0  0  0  0  0  0  0  0
    6.4329   -1.6377    1.8285 H   0  0  0  0  0  0  0  0  0  0  0  0
    6.8085   -1.4620    0.0706 H   0  0  0  0  0  0  0  0  0  0  0  0
    4.6463    4.3926    1.2930 H   0  0  0  0  0  0  0  0  0  0  0  0
    3.5031    3.7098    0.1296 H   0  0  0  0  0  0  0  0  0  0  0  0
    3.1075    3.7615    1.8900 H   0  0  0  0  0  0  0  0  0  0  0  0
   -3.8350   -1.9166   -2.7879 H   0  0  0  0  0  0  0  0  0  0  0  0
   -5.5693   -1.7096   -2.3554 H   0  0  0  0  0  0  0  0  0  0  0  0
   -4.7675   -3.2652   -2.1200 H   0  0  0  0  0  0  0  0  0  0  0  0
  1  2  1  0
  2  3  1  0
  3  4  2  0
  4  5  1  0
  5  6  2  0
  6  7  1  0
  7  8  2  0
  8  9  1  0
  9 10  2  0
 10 11  1  0
 11 12  2  0
  8 13  1  0
 13 14  2  0
 14 15  1  0
 15 16  2  0
 16 17  1  0
 17 18  2  0
 18 19  1  0
 19 20  1  0
 16 21  1  0
 21 22  1  0
 15 23  1  0
 23 24  1  0
  4 25  1  0
 25 26  1  0
 12  3  1  0
 10  5  1  0
 20  7  1  0
 18 13  1  0
  1 27  1  0
  1 28  1  0
  1 29  1  0
  6 30  1  0
  9 31  1  0
 11 32  1  0
 12 33  1  0
 14 34  1  0
 17 35  1  0
 19 36  1  0
 19 37  1  0
 20 38  1  0
 20 39  1  0
 22 40  1  0
 22 41  1  0
 22 42  1  0
 24 43  1  0
 24 44  1  0
 24 45  1  0
 26 46  1  0
 26 47  1  0
 26 48  1  0
M  CHG  1   7   1
M  END
$$$$
