
     RDKit          3D

 55 55  0  0  0  0  0  0  0  0999 V2000
    1.1739    5.6707    1.3990 C   0  0  0  0  0  0  0  0  0  0  0  0
    0.7853    4.2347    1.6338 C   0  0  0  0  0  0  0  0  0  0  0  0
    0.9244    3.6972    2.7273 O   0  0  0  0  0  0  0  0  0  0  0  0
    0.3313    3.6007    0.4829 N   0  0  0  0  0  0  0  0  0  0  0  0
    0.0209    2.2115    0.5104 C   0  0  0  0  0  0  0  0  0  0  0  0
    0.8144    1.3293   -0.2558 C   0  0  0  0  0  0  0  0  0  0  0  0
    0.6080   -0.0609   -0.1753 C   0  0  0  0  0  0  0  0  0  0  0  0
   -0.4512   -0.5781    0.5941 C   0  0  0  0  0  0  0  0  0  0  0  0
   -1.3201    0.3086    1.2611 C   0  0  0  0  0  0  0  0  0  0  0  0
   -1.0661    1.6981    1.2557 C   0  0  0  0  0  0  0  0  0  0  0  0
   -2.4335    3.0371    2.2467 I   0  0  0  0  0  0  0  0  0  0  0  0
   -2.4625   -0.2361    2.0193 C   0  0  0  0  0  0  0  0  0  0  0  0
   -2.2452   -0.5536    3.1861 O   0  0  0  0  0  0  0  0  0  0  0  0
   -3.6974   -0.3882    1.3815 N   0  0  0  0  0  0  0  0  0  0  0  0
   -4.8049   -0.8797    2.1882 C   0  0  0  0  0  0  0  0  0  0  0  0
   -4.0471    0.1510    0.0583 C   0  0  0  0  0  0  0  0  0  0  0  0
   -3.7599   -0.7693   -1.1404 C   0  0  0  0  0  0  0  0  0  0  0  0
   -4.5409   -2.0848   -1.1246 C   0  0  0  0  0  0  0  0  0  0  0  0
   -5.9406   -1.8018   -1.2058 O   0  0  0  0  0  0  0  0  0  0  0  0
   -4.1165   -0.0556   -2.3373 O   0  0  0  0  0  0  0  0  0  0  0  0
   -0.7203   -2.7037    0.7695 I   0  0  0  0  0  0  0  0  0  0  0  0
    1.4704   -0.9789   -0.9424 C   0  0  0  0  0  0  0  0  0  0  0  0
    1.0530   -1.3118   -2.0483 O   0  0  0  0  0  0  0  0  0  0  0  0
    2.6567   -1.4290   -0.3598 N   0  0  0  0  0  0  0  0  0  0  0  0
    3.0462   -1.1720    1.0242 C   0  0  0  0  0  0  0  0  0  0  0  0
    3.4613   -2.4084   -1.1029 C   0  0  0  0  0  0  0  0  0  0  0  0
    4.5624   -1.8183   -2.0154 C   0  0  0  0  0  0  0  0  0  0  0  0
    5.6559   -1.0561   -1.2620 C   0  0  0  0  0  0  0  0  0  0  0  0
    6.3229   -1.8798   -0.3138 O   0  0  0  0  0  0  0  0  0  0  0  0
    4.0028   -0.9841   -3.0288 O   0  0  0  0  0  0  0  0  0  0  0  0
    2.3714    2.1395   -1.4819 I   0  0  0  0  0  0  0  0  0  0  0  0
    0.8411    6.2755    2.2471 H   0  0  0  0  0  0  0  0  0  0  0  0
    0.7056    6.0663    0.4931 H   0  0  0  0  0  0  0  0  0  0  0  0
    2.2604    5.7370    1.3004 H   0  0  0  0  0  0  0  0  0  0  0  0
    0.8459    3.9021   -0.3403 H   0  0  0  0  0  0  0  0  0  0  0  0
   -4.4540   -1.4417    3.0580 H   0  0  0  0  0  0  0  0  0  0  0  0
   -5.3879   -0.0210    2.5345 H   0  0  0  0  0  0  0  0  0  0  0  0
   -5.4413   -1.5326    1.5864 H   0  0  0  0  0  0  0  0  0  0  0  0
   -3.5026    1.0862   -0.1029 H   0  0  0  0  0  0  0  0  0  0  0  0
   -5.1044    0.4460    0.0683 H   0  0  0  0  0  0  0  0  0  0  0  0
   -2.6914   -0.9817   -1.2069 H   0  0  0  0  0  0  0  0  0  0  0  0
   -4.2817   -2.6824   -2.0048 H   0  0  0  0  0  0  0  0  0  0  0  0
   -4.3408   -2.6719   -0.2245 H   0  0  0  0  0  0  0  0  0  0  0  0
   -6.3959   -2.6630   -1.2295 H   0  0  0  0  0  0  0  0  0  0  0  0
   -5.0849   -0.1702   -2.4249 H   0  0  0  0  0  0  0  0  0  0  0  0
    4.1163   -0.9662    1.0789 H   0  0  0  0  0  0  0  0  0  0  0  0
    2.8236   -2.0661    1.6142 H   0  0  0  0  0  0  0  0  0  0  0  0
    2.5112   -0.3259    1.4578 H   0  0  0  0  0  0  0  0  0  0  0  0
    3.8974   -3.1127   -0.3846 H   0  0  0  0  0  0  0  0  0  0  0  0
    2.7791   -2.9902   -1.7350 H   0  0  0  0  0  0  0  0  0  0  0  0
    5.0291   -2.6710   -2.5248 H   0  0  0  0  0  0  0  0  0  0  0  0
    5.2446   -0.1828   -0.7468 H   0  0  0  0  0  0  0  0  0  0  0  0
    6.4006   -0.6646   -1.9648 H   0  0  0  0  0  0  0  0  0  0  0  0
    6.8836   -2.5041   -0.8064 H   0  0  0  0  0  0  0  0  0  0  0  0
    4.6916   -0.7933   -3.6860 H   0  0  0  0  0  0  0  0  0  0  0  0
  1  2  1  0
  2  3  2  0
  2  4  1  0
  4  5  1  0
  5  6  2  0
  6  7  1  0
  7  8  2  0
  8  9  1  0
  9 10  2  0
 10 11  1  0
  9 12  1  0
 12 13  2  0
 12 14  1  0
 14 15  1  0
 14 16  1  0
 16 17  1  0
 17 18  1  0
 18 19  1  0
 17 20  1  0
  8 21  1  0
  7 22  1  0
 22 23  2  0
 22 24  1  0
 24 25  1  0
 24 26  1  0
 26 27  1  0
 27 28  1  0
 28 29  1  0
 27 30  1  0
  6 31  1  0
 10  5  1  0
  1 32  1  0
  1 33  1  0
  1 34  1  0
  4 35  1  0
 15 36  1  0
 15 37  1  0
 15 38  1  0
 16 39  1  0
 16 40  1  0
 17 41  1  0
 18 42  1  0
 18 43  1  0
 19 44  1  0
 20 45  1  0
 25 46  1  0
 25 47  1  0
 25 48  1  0
 26 49  1  0
 26 50  1  0
 27 51  1  0
 28 52  1  0
 28 53  1  0
 29 54  1  0
 30 55  1  0
M  END
$$$$
