
     RDKit          3D

 41 46  0  0  0  0  0  0  0  0999 V2000
   -0.0693    1.8434    1.2490 C   0  0  0  0  0  0  0  0  0  0  0  0
   -0.5813    0.6926    0.4083 C   0  0  0  0  0  0  0  0  0  0  0  0
    0.3119   -0.2321   -0.2084 C   0  0  0  0  0  0  0  0  0  0  0  0
    1.7823   -0.3372    0.0107 C   0  0  0  0  0  0  0  0  0  0  0  0
    2.4099   -0.0044    1.2267 C   0  0  0  0  0  0  0  0  0  0  0  0
    3.7877   -0.0409    1.3140 C   0  0  0  0  0  0  0  0  0  0  0  0
    4.5722   -0.4551    0.2715 C   0  0  0  0  0  0  0  0  0  0  0  0
    4.0217   -0.8636   -0.9180 C   0  0  0  0  0  0  0  0  0  0  0  0
    2.6189   -0.8182   -1.0381 C   0  0  0  0  0  0  0  0  0  0  0  0
    1.9628   -1.3030   -2.2985 C   0  0  0  0  0  0  0  0  0  0  0  0
    0.6912   -2.0294   -1.8935 C   0  0  0  0  0  0  0  0  0  0  0  0
   -0.2008   -1.1066   -1.1340 N   0  0  0  0  0  4  0  0  0  0  0  0
   -1.5238   -1.1771   -1.3868 C   0  0  0  0  0  0  0  0  0  0  0  0
   -2.4517   -0.3851   -0.7256 C   0  0  0  0  0  0  0  0  0  0  0  0
   -3.8236   -0.5276   -1.0062 C   0  0  0  0  0  0  0  0  0  0  0  0
   -4.7180    0.2489   -0.3069 C   0  0  0  0  0  0  0  0  0  0  0  0
   -4.3010    1.1452    0.6384 C   0  0  0  0  0  0  0  0  0  0  0  0
   -2.9601    1.3249    0.9148 C   0  0  0  0  0  0  0  0  0  0  0  0
   -1.9856    0.5632    0.2178 C   0  0  0  0  0  0  0  0  0  0  0  0
   -5.3306    1.7921    1.2367 O   0  0  0  0  0  0  0  0  0  0  0  0
   -6.4569    1.2077    0.5418 C   0  0  0  0  0  0  0  0  0  0  0  0
   -6.0693    0.2241   -0.4458 O   0  0  0  0  0  0  0  0  0  0  0  0
    5.8983   -0.4284    0.5649 O   0  0  0  0  0  0  0  0  0  0  0  0
    5.8617    0.1622    1.8883 C   0  0  0  0  0  0  0  0  0  0  0  0
    4.5190    0.3322    2.4010 O   0  0  0  0  0  0  0  0  0  0  0  0
    0.9297    2.1615    0.9278 H   0  0  0  0  0  0  0  0  0  0  0  0
   -0.0454    1.5692    2.3068 H   0  0  0  0  0  0  0  0  0  0  0  0
   -0.6840    2.7409    1.1219 H   0  0  0  0  0  0  0  0  0  0  0  0
    1.8612    0.3001    2.1129 H   0  0  0  0  0  0  0  0  0  0  0  0
    4.6628   -1.2100   -1.7248 H   0  0  0  0  0  0  0  0  0  0  0  0
    2.6181   -1.9898   -2.8498 H   0  0  0  0  0  0  0  0  0  0  0  0
    1.7429   -0.4460   -2.9459 H   0  0  0  0  0  0  0  0  0  0  0  0
    0.1634   -2.3730   -2.7912 H   0  0  0  0  0  0  0  0  0  0  0  0
    0.8769   -2.8883   -1.2366 H   0  0  0  0  0  0  0  0  0  0  0  0
   -1.8437   -1.9121   -2.1229 H   0  0  0  0  0  0  0  0  0  0  0  0
   -4.2019   -1.2334   -1.7437 H   0  0  0  0  0  0  0  0  0  0  0  0
   -2.6970    2.0423    1.6919 H   0  0  0  0  0  0  0  0  0  0  0  0
   -7.0094    2.0119    0.0362 H   0  0  0  0  0  0  0  0  0  0  0  0
   -7.1143    0.7271    1.2764 H   0  0  0  0  0  0  0  0  0  0  0  0
    6.4273   -0.4771    2.5782 H   0  0  0  0  0  0  0  0  0  0  0  0
    6.3480    1.1488    1.8409 H   0  0  0  0  0  0  0  0  0  0  0  0
  1  2  1  0
  2  3  2  0
  3  4  1  0
  4  5  2  0
  5  6  1  0
  6  7  2  0
  7  8  1  0
  8  9  2  0
  9 10  1  0
 10 11  1  0
 11 12  1  0
 12 13  2  0
 13 14  1  0
 14 15  2  0
 15 16  1  0
 16 17  2  0
 17 18  1  0
 18 19  2  0
 17 20  1  0
 20 21  1  0
 21 22  1  0
  7 23  1  0
 23 24  1  0
 24 25  1  0
 19  2  1  0
 12  3  1  0
  9  4  1  0
 25  6  1  0
 19 14  1  0
 22 16  1  0
  1 26  1  0
  1 27  1  0
  1 28  1  0
  5 29  1  0
  8 30  1  0
 10 31  1  0
 10 32  1  0
 11 33  1  0
 11 34  1  0
 13 35  1  0
 15 36  1  0
 18 37  1  0
 21 38  1  0
 21 39  1  0
 24 40  1  0
 24 41  1  0
M  CHG  1  12   1
M  END
$$$$
