
     RDKit          3D

 48 51  0  0  0  0  0  0  0  0999 V2000
    4.7150   -0.4271   -0.6360 C   0  0  0  0  0  0  0  0  0  0  0  0
    3.4457   -0.7016   -1.4403 C   0  0  0  0  0  0  0  0  0  0  0  0
    2.2502   -0.0145   -0.9231 N   0  0  0  0  0  0  0  0  0  0  0  0
    2.4991    1.4331   -0.8108 C   0  0  0  0  0  0  0  0  0  0  0  0
    3.7392    1.7954    0.0047 C   0  0  0  0  0  0  0  0  0  0  0  0
    4.9706    1.0716   -0.5258 C   0  0  0  0  0  0  0  0  0  0  0  0
    6.0642    1.3163    0.3531 O   0  0  0  0  0  0  0  0  0  0  0  0
    1.7652   -0.6278    0.3236 C   0  0  0  0  0  0  0  0  0  0  0  0
    0.3252   -0.2414    0.6849 C   0  0  0  0  0  0  0  0  0  0  0  0
   -0.6743   -0.6255   -0.4170 C   0  0  0  0  0  0  0  0  0  0  0  0
   -2.0757   -0.4238    0.0278 N   0  0  0  0  0  0  0  0  0  0  0  0
   -2.6791    0.8339   -0.2678 C   0  0  0  0  0  0  0  0  0  0  0  0
   -1.9223    1.9589   -0.6690 C   0  0  0  0  0  0  0  0  0  0  0  0
   -2.5029    3.2024   -0.9489 C   0  0  0  0  0  0  0  0  0  0  0  0
   -3.8719    3.3677   -0.8340 C   0  0  0  0  0  0  0  0  0  0  0  0
   -4.6509    2.2873   -0.4381 C   0  0  0  0  0  0  0  0  0  0  0  0
   -4.0698    1.0345   -0.1536 C   0  0  0  0  0  0  0  0  0  0  0  0
   -5.2139   -0.2428    0.3105 S   0  0  0  0  0  0  0  0  0  0  0  0
   -4.1309   -1.5531    0.8262 C   0  0  0  0  0  0  0  0  0  0  0  0
   -4.7675   -2.6551    1.4331 C   0  0  0  0  0  0  0  0  0  0  0  0
   -4.0398   -3.7562    1.8674 C   0  0  0  0  0  0  0  0  0  0  0  0
   -2.6664   -3.7629    1.6986 C   0  0  0  0  0  0  0  0  0  0  0  0
   -2.0302   -2.6712    1.0942 C   0  0  0  0  0  0  0  0  0  0  0  0
   -2.7348   -1.5350    0.6320 C   0  0  0  0  0  0  0  0  0  0  0  0
    4.6465   -0.8731    0.3642 H   0  0  0  0  0  0  0  0  0  0  0  0
    5.5735   -0.9128   -1.1155 H   0  0  0  0  0  0  0  0  0  0  0  0
    3.2688   -1.7826   -1.4983 H   0  0  0  0  0  0  0  0  0  0  0  0
    3.6048   -0.3801   -2.4781 H   0  0  0  0  0  0  0  0  0  0  0  0
    1.6268    1.9526   -0.4018 H   0  0  0  0  0  0  0  0  0  0  0  0
    2.6158    1.8353   -1.8261 H   0  0  0  0  0  0  0  0  0  0  0  0
    3.9069    2.8788   -0.0328 H   0  0  0  0  0  0  0  0  0  0  0  0
    3.5904    1.5613    1.0661 H   0  0  0  0  0  0  0  0  0  0  0  0
    5.2364    1.4780   -1.5093 H   0  0  0  0  0  0  0  0  0  0  0  0
    6.8433    0.8623   -0.0114 H   0  0  0  0  0  0  0  0  0  0  0  0
    1.7810   -1.7208    0.2176 H   0  0  0  0  0  0  0  0  0  0  0  0
    2.4211   -0.3971    1.1707 H   0  0  0  0  0  0  0  0  0  0  0  0
    0.2595    0.8264    0.9163 H   0  0  0  0  0  0  0  0  0  0  0  0
    0.0662   -0.7498    1.6213 H   0  0  0  0  0  0  0  0  0  0  0  0
   -0.5130   -1.6633   -0.7363 H   0  0  0  0  0  0  0  0  0  0  0  0
   -0.4712   -0.0692   -1.3405 H   0  0  0  0  0  0  0  0  0  0  0  0
   -0.8433    1.9114   -0.7663 H   0  0  0  0  0  0  0  0  0  0  0  0
   -1.8760    4.0366   -1.2528 H   0  0  0  0  0  0  0  0  0  0  0  0
   -4.3330    4.3273   -1.0490 H   0  0  0  0  0  0  0  0  0  0  0  0
   -5.7272    2.4238   -0.3518 H   0  0  0  0  0  0  0  0  0  0  0  0
   -5.8474   -2.6567    1.5690 H   0  0  0  0  0  0  0  0  0  0  0  0
   -4.5437   -4.5973    2.3346 H   0  0  0  0  0  0  0  0  0  0  0  0
   -2.0794   -4.6123    2.0384 H   0  0  0  0  0  0  0  0  0  0  0  0
   -0.9506   -2.7416    1.0152 H   0  0  0  0  0  0  0  0  0  0  0  0
  1  2  1  0
  2  3  1  0
  3  4  1  0
  4  5  1  0
  5  6  1  0
  6  7  1  0
  3  8  1  0
  8  9  1  0
  9 10  1  0
 10 11  1  0
 11 12  1  0
 12 13  2  0
 13 14  1  0
 14 15  2  0
 15 16  1  0
 16 17  2  0
 17 18  1  0
 18 19  1  0
 19 20  2  0
 20 21  1  0
 21 22  2  0
 22 23  1  0
 23 24  2  0
  6  1  1  0
 24 11  1  0
 17 12  1  0
 24 19  1  0
  1 25  1  0
  1 26  1  0
  2 27  1  0
  2 28  1  0
  4 29  1  0
  4 30  1  0
  5 31  1  0
  5 32  1  0
  6 33  1  0
  7 34  1  0
  8 35  1  0
  8 36  1  0
  9 37  1  0
  9 38  1  0
 10 39  1  0
 10 40  1  0
 13 41  1  0
 14 42  1  0
 15 43  1  0
 16 44  1  0
 20 45  1  0
 21 46  1  0
 22 47  1  0
 23 48  1  0
M  END
$$$$
