
     RDKit          3D

 25 26  0  0  0  0  0  0  0  0999 V2000
   -1.1875    0.2245   -0.9632 C   0  0  0  0  0  0  0  0  0  0  0  0
   -2.4209   -0.6444   -0.8478 C   0  0  1  0  0  0  0  0  0  0  0  0
   -1.9095   -1.9708   -0.6955 O   0  0  0  0  0  0  0  0  0  0  0  0
   -0.6095   -1.8878   -0.2608 C   0  0  0  0  0  0  0  0  0  0  0  0
   -0.0040   -2.8776    0.1163 O   0  0  0  0  0  0  0  0  0  0  0  0
   -0.1668   -0.5746   -0.3471 N   0  0  0  0  0  0  0  0  0  0  0  0
    1.1284   -0.0814   -0.0383 C   0  0  0  0  0  0  0  0  0  0  0  0
    1.4791    1.2418   -0.3441 C   0  0  0  0  0  0  0  0  0  0  0  0
    2.7492    1.7364   -0.0403 C   0  0  0  0  0  0  0  0  0  0  0  0
    3.7000    0.9314    0.5753 C   0  0  0  0  0  0  0  0  0  0  0  0
    3.3736   -0.3836    0.8900 C   0  0  0  0  0  0  0  0  0  0  0  0
    2.0979   -0.8813    0.5849 C   0  0  0  0  0  0  0  0  0  0  0  0
    5.5897    1.6608    1.0303 I   0  0  0  0  0  0  0  0  0  0  0  0
    3.0253    3.0097   -0.3604 F   0  0  0  0  0  0  0  0  0  0  0  0
   -3.2924   -0.2922    0.3576 C   0  0  0  0  0  0  0  0  0  0  0  0
   -3.8347    1.0136    0.2095 O   0  0  0  0  0  0  0  0  0  0  0  0
   -1.3053    1.1978   -0.4779 H   0  0  0  0  0  0  0  0  0  0  0  0
   -0.9145    0.3676   -2.0154 H   0  0  0  0  0  0  0  0  0  0  0  0
   -3.0156   -0.5786   -1.7658 H   0  0  0  0  0  0  0  0  0  0  0  0
    0.7923    1.9254   -0.8312 H   0  0  0  0  0  0  0  0  0  0  0  0
    4.0926   -1.0413    1.3733 H   0  0  0  0  0  0  0  0  0  0  0  0
    1.8949   -1.9127    0.8614 H   0  0  0  0  0  0  0  0  0  0  0  0
   -2.7196   -0.3367    1.2906 H   0  0  0  0  0  0  0  0  0  0  0  0
   -4.1158   -1.0094    0.4457 H   0  0  0  0  0  0  0  0  0  0  0  0
   -4.4270    1.1634    0.9687 H   0  0  0  0  0  0  0  0  0  0  0  0
  1  2  1  0
  2  3  1  0
  3  4  1  0
  4  5  2  0
  4  6  1  0
  6  7  1  0
  7  8  2  0
  8  9  1  0
  9 10  2  0
 10 11  1  0
 11 12  2  0
 10 13  1  0
  9 14  1  0
  2 15  1  0
 15 16  1  0
  6  1  1  0
 12  7  1  0
  1 17  1  0
  1 18  1  0
  2 19  1  6
  8 20  1  0
 11 21  1  0
 12 22  1  0
 15 23  1  0
 15 24  1  0
 16 25  1  0
M  END
$$$$
