
     RDKit          3D

 86 87  0  0  0  0  0  0  0  0999 V2000
   -5.0138   -2.2976    1.2288 C   0  0  0  0  0  0  0  0  0  0  0  0
   -5.6495   -0.9646    0.9480 C   0  0  0  0  0  0  0  0  0  0  0  0
   -6.9830   -0.7030    1.3346 C   0  0  0  0  0  0  0  0  0  0  0  0
   -7.5044    0.5714    1.0720 C   0  0  0  0  0  0  0  0  0  0  0  0
   -6.7642    1.6039    0.4771 C   0  0  0  0  0  0  0  0  0  0  0  0
   -5.4572    1.3164    0.0478 C   0  0  0  0  0  0  0  0  0  0  0  0
   -4.9351    0.0226    0.2358 C   0  0  0  0  0  0  0  0  0  0  0  0
   -3.7046   -0.3708   -0.2662 O   0  0  0  0  0  0  0  0  0  0  0  0
   -3.1329    0.4570   -1.2974 C   0  0  0  0  0  0  0  0  0  0  0  0
   -3.1921    1.9180   -0.8501 C   0  0  0  0  0  0  0  0  0  0  0  0
   -4.6291    2.3653   -0.6609 C   0  0  0  0  0  0  0  0  0  0  0  0
   -3.8902    0.2237   -2.6281 C   0  0  0  0  0  0  0  0  0  0  0  0
   -1.6741   -0.0274   -1.5255 C   0  0  0  0  0  0  0  0  0  0  0  0
   -0.7729   -0.0841   -0.2870 C   0  0  0  0  0  0  0  0  0  0  0  0
    0.7314   -0.2413   -0.6126 C   0  0  0  0  0  0  0  0  0  0  0  0
    1.2184   -1.6452   -1.0242 C   0  0  0  0  0  0  0  0  0  0  0  0
    0.8072   -2.0355   -2.4464 C   0  0  0  0  0  0  0  0  0  0  0  0
    2.7497   -1.7721   -0.8532 C   0  0  0  0  0  0  0  0  0  0  0  0
    3.5885   -0.8937   -1.7980 C   0  0  0  0  0  0  0  0  0  0  0  0
    5.1126   -1.0829   -1.6420 C   0  0  0  0  0  0  0  0  0  0  0  0
    5.6972   -0.8594   -0.2278 C   0  0  0  0  0  0  0  0  0  0  0  0
    5.3939    0.5500    0.2792 C   0  0  0  0  0  0  0  0  0  0  0  0
    7.2129   -1.1509   -0.2688 C   0  0  0  0  0  0  0  0  0  0  0  0
    7.9091   -1.2544    1.1054 C   0  0  0  0  0  0  0  0  0  0  0  0
    8.3553    0.0546    1.7746 C   0  0  0  0  0  0  0  0  0  0  0  0
    9.2344    0.9798    0.9369 C   0  0  0  0  0  0  0  0  0  0  0  0
   10.5608    0.3306    0.5349 C   0  0  0  0  0  0  0  0  0  0  0  0
    9.5030    2.2788    1.7030 C   0  0  0  0  0  0  0  0  0  0  0  0
   -7.3974    2.9686    0.3146 C   0  0  0  0  0  0  0  0  0  0  0  0
   -8.8243    0.8580    1.5091 O   0  0  0  0  0  0  0  0  0  0  0  0
   -9.7777    0.6734    0.5174 C   0  0  0  0  0  0  0  0  0  0  0  0
   -9.5979    0.2484   -0.6234 O   0  0  0  0  0  0  0  0  0  0  0  0
  -11.1240    1.0437    1.0663 C   0  0  0  0  0  0  0  0  0  0  0  0
   -7.8047   -1.7419    2.0481 C   0  0  0  0  0  0  0  0  0  0  0  0
   -5.2769   -2.6585    2.2268 H   0  0  0  0  0  0  0  0  0  0  0  0
   -5.3259   -3.0257    0.4767 H   0  0  0  0  0  0  0  0  0  0  0  0
   -3.9197   -2.2376    1.2185 H   0  0  0  0  0  0  0  0  0  0  0  0
   -2.6863    2.5734   -1.5755 H   0  0  0  0  0  0  0  0  0  0  0  0
   -2.6705    2.0310    0.1054 H   0  0  0  0  0  0  0  0  0  0  0  0
   -4.6108    3.2859   -0.0797 H   0  0  0  0  0  0  0  0  0  0  0  0
   -5.0883    2.5733   -1.6306 H   0  0  0  0  0  0  0  0  0  0  0  0
   -3.7996    1.0926   -3.3006 H   0  0  0  0  0  0  0  0  0  0  0  0
   -4.9625    0.0247   -2.4810 H   0  0  0  0  0  0  0  0  0  0  0  0
   -3.5016   -0.6509   -3.1733 H   0  0  0  0  0  0  0  0  0  0  0  0
   -1.2081    0.6043   -2.2915 H   0  0  0  0  0  0  0  0  0  0  0  0
   -1.7299   -1.0436   -1.9184 H   0  0  0  0  0  0  0  0  0  0  0  0
   -1.0949   -0.8867    0.3854 H   0  0  0  0  0  0  0  0  0  0  0  0
   -0.8651    0.8477    0.2798 H   0  0  0  0  0  0  0  0  0  0  0  0
    1.2675    0.0456    0.3035 H   0  0  0  0  0  0  0  0  0  0  0  0
    1.0070    0.5030   -1.3694 H   0  0  0  0  0  0  0  0  0  0  0  0
    0.7764   -2.3755   -0.3435 H   0  0  0  0  0  0  0  0  0  0  0  0
   -0.2435   -2.3321   -2.4913 H   0  0  0  0  0  0  0  0  0  0  0  0
    0.9775   -1.2228   -3.1596 H   0  0  0  0  0  0  0  0  0  0  0  0
    1.3787   -2.9075   -2.7865 H   0  0  0  0  0  0  0  0  0  0  0  0
    3.0415   -2.8219   -1.0123 H   0  0  0  0  0  0  0  0  0  0  0  0
    3.0055   -1.5373    0.1846 H   0  0  0  0  0  0  0  0  0  0  0  0
    3.3292    0.1620   -1.6658 H   0  0  0  0  0  0  0  0  0  0  0  0
    3.3400   -1.1342   -2.8406 H   0  0  0  0  0  0  0  0  0  0  0  0
    5.6030   -0.4083   -2.3544 H   0  0  0  0  0  0  0  0  0  0  0  0
    5.3554   -2.1032   -1.9694 H   0  0  0  0  0  0  0  0  0  0  0  0
    5.2325   -1.5763    0.4507 H   0  0  0  0  0  0  0  0  0  0  0  0
    6.0043    1.3017   -0.2377 H   0  0  0  0  0  0  0  0  0  0  0  0
    4.3421    0.8242    0.1513 H   0  0  0  0  0  0  0  0  0  0  0  0
    5.5835    0.6213    1.3540 H   0  0  0  0  0  0  0  0  0  0  0  0
    7.3479   -2.1312   -0.7460 H   0  0  0  0  0  0  0  0  0  0  0  0
    7.7237   -0.4351   -0.9101 H   0  0  0  0  0  0  0  0  0  0  0  0
    7.2602   -1.8014    1.7998 H   0  0  0  0  0  0  0  0  0  0  0  0
    8.7996   -1.8863    0.9794 H   0  0  0  0  0  0  0  0  0  0  0  0
    8.9080   -0.2224    2.6873 H   0  0  0  0  0  0  0  0  0  0  0  0
    7.4831    0.6026    2.1338 H   0  0  0  0  0  0  0  0  0  0  0  0
    8.7143    1.2627    0.0152 H   0  0  0  0  0  0  0  0  0  0  0  0
   10.3958   -0.5578   -0.0834 H   0  0  0  0  0  0  0  0  0  0  0  0
   11.1708    1.0245   -0.0597 H   0  0  0  0  0  0  0  0  0  0  0  0
   11.1466    0.0376    1.4138 H   0  0  0  0  0  0  0  0  0  0  0  0
    8.6346    2.9529    1.6223 H   0  0  0  0  0  0  0  0  0  0  0  0
    9.6835    2.0914    2.7739 H   0  0  0  0  0  0  0  0  0  0  0  0
   10.3790    2.8216    1.3090 H   0  0  0  0  0  0  0  0  0  0  0  0
   -7.6386    3.3802    1.2976 H   0  0  0  0  0  0  0  0  0  0  0  0
   -6.7526    3.6841   -0.2006 H   0  0  0  0  0  0  0  0  0  0  0  0
   -8.3138    2.8991   -0.2757 H   0  0  0  0  0  0  0  0  0  0  0  0
  -11.8345    1.1737    0.2429 H   0  0  0  0  0  0  0  0  0  0  0  0
  -11.0601    1.9916    1.6066 H   0  0  0  0  0  0  0  0  0  0  0  0
  -11.4762    0.2499    1.7276 H   0  0  0  0  0  0  0  0  0  0  0  0
   -7.6480   -1.6638    3.1303 H   0  0  0  0  0  0  0  0  0  0  0  0
   -7.5535   -2.7562    1.7192 H   0  0  0  0  0  0  0  0  0  0  0  0
   -8.8757   -1.6258    1.8444 H   0  0  0  0  0  0  0  0  0  0  0  0
  1  2  1  0
  2  3  2  0
  3  4  1  0
  4  5  2  0
  5  6  1  0
  6  7  2  0
  7  8  1  0
  8  9  1  0
  9 10  1  0
 10 11  1  0
  9 12  1  0
  9 13  1  0
 13 14  1  0
 14 15  1  0
 15 16  1  0
 16 17  1  0
 16 18  1  0
 18 19  1  0
 19 20  1  0
 20 21  1  0
 21 22  1  0
 21 23  1  0
 23 24  1  0
 24 25  1  0
 25 26  1  0
 26 27  1  0
 26 28  1  0
  5 29  1  0
  4 30  1  0
 30 31  1  0
 31 32  2  0
 31 33  1  0
  3 34  1  0
  7  2  1  0
 11  6  1  0
  1 35  1  0
  1 36  1  0
  1 37  1  0
 10 38  1  0
 10 39  1  0
 11 40  1  0
 11 41  1  0
 12 42  1  0
 12 43  1  0
 12 44  1  0
 13 45  1  0
 13 46  1  0
 14 47  1  0
 14 48  1  0
 15 49  1  0
 15 50  1  0
 16 51  1  0
 17 52  1  0
 17 53  1  0
 17 54  1  0
 18 55  1  0
 18 56  1  0
 19 57  1  0
 19 58  1  0
 20 59  1  0
 20 60  1  0
 21 61  1  0
 22 62  1  0
 22 63  1  0
 22 64  1  0
 23 65  1  0
 23 66  1  0
 24 67  1  0
 24 68  1  0
 25 69  1  0
 25 70  1  0
 26 71  1  0
 27 72  1  0
 27 73  1  0
 27 74  1  0
 28 75  1  0
 28 76  1  0
 28 77  1  0
 29 78  1  0
 29 79  1  0
 29 80  1  0
 33 81  1  0
 33 82  1  0
 33 83  1  0
 34 84  1  0
 34 85  1  0
 34 86  1  0
M  END
$$$$
