
     RDKit          3D

150159  0  0  0  0  0  0  0  0999 V2000
   12.4965    3.1215   -1.5279 C   0  0  0  0  0  0  0  0  0  0  0  0
   11.4167    2.1667   -1.0238 C   0  0  1  0  0  0  0  0  0  0  0  0
   11.8326    0.7102   -1.2214 C   0  0  0  0  0  0  0  0  0  0  0  0
   10.9894   -0.2649   -0.3969 C   0  0  0  0  0  0  0  0  0  0  0  0
    9.7802    0.3986    0.2649 C   0  0  2  0  0  0  0  0  0  0  0  0
    8.9752   -0.5973    1.1317 C   0  0  2  0  0  0  0  0  0  0  0  0
    7.5574   -0.0181    1.1137 C   0  0  1  0  0  0  0  0  0  0  0  0
    7.6119    1.0380   -0.0098 C   0  0  1  0  0  0  0  0  0  0  0  0
    8.8250    0.8134   -0.7269 O   0  0  0  0  0  0  0  0  0  0  0  0
    6.3652    0.8674   -0.8757 C   0  0  0  0  0  0  0  0  0  0  0  0
    5.4281    0.1324    0.0764 C   0  0  2  0  0  0  0  0  0  0  0  0
    6.3508   -0.9266    0.7184 C   0  0  2  0  0  0  0  0  0  0  0  0
    5.5806   -1.5224    1.9090 C   0  0  0  0  0  0  0  0  0  0  0  0
    4.2437   -2.1459    1.4632 C   0  0  0  0  0  0  0  0  0  0  0  0
    3.3338   -1.1873    0.6395 C   0  0  1  0  0  0  0  0  0  0  0  0
    4.1181   -0.4292   -0.4780 C   0  0  1  0  0  0  0  0  0  0  0  0
    3.2778    0.7051   -1.0918 C   0  0  0  0  0  0  0  0  0  0  0  0
    1.7797    0.5325   -0.8929 C   0  0  0  0  0  0  0  0  0  0  0  0
    1.3546   -0.9333   -1.0193 C   0  0  1  0  0  0  0  0  0  0  0  0
    2.0352   -1.8727    0.0437 C   0  0  2  0  0  0  0  0  0  0  0  0
    1.0215   -2.2644    1.1698 C   0  0  0  0  0  0  0  0  0  0  0  0
    0.0431   -1.1576    1.5520 C   0  0  0  0  0  0  0  0  0  0  0  0
   -0.7789   -0.6413    0.3647 C   0  0  1  0  0  0  0  0  0  0  0  0
   -0.1724   -1.0398   -0.9867 C   0  0  0  0  0  0  0  0  0  0  0  0
   -2.1135   -1.1723    0.4158 O   0  0  0  0  0  0  0  0  0  0  0  0
   -3.1009   -0.2168    0.0057 C   0  0  1  0  0  0  0  0  0  0  0  0
   -4.1714   -0.9081   -0.8532 C   0  0  1  0  0  0  0  0  0  0  0  0
   -5.1906    0.1568   -1.2954 C   0  0  2  0  0  0  0  0  0  0  0  0
   -5.4915    1.2121   -0.2133 C   0  0  1  0  0  0  0  0  0  0  0  0
   -5.0373    0.7314    1.1830 C   0  0  2  0  0  0  0  0  0  0  0  0
   -3.6441    0.3586    1.1958 O   0  0  0  0  0  0  0  0  0  0  0  0
   -5.9132   -0.4148    1.7493 C   0  0  0  0  0  0  0  0  0  0  0  0
   -6.7642    0.0192    2.8240 O   0  0  0  0  0  0  0  0  0  0  0  0
   -8.0269    0.5526    2.4067 C   0  0  1  0  0  0  0  0  0  0  0  0
   -8.8884    0.6687    3.6770 C   0  0  1  0  0  0  0  0  0  0  0  0
  -10.2619    1.2352    3.3179 C   0  0  2  0  0  0  0  0  0  0  0  0
  -10.1559    2.4125    2.3338 C   0  0  2  0  0  0  0  0  0  0  0  0
   -8.7023    2.8531    2.1569 C   0  0  0  0  0  0  0  0  0  0  0  0
   -7.8518    1.7892    1.7248 O   0  0  0  0  0  0  0  0  0  0  0  0
  -10.9641    3.5116    2.7502 O   0  0  0  0  0  0  0  0  0  0  0  0
  -10.9457    1.6588    4.5142 O   0  0  0  0  0  0  0  0  0  0  0  0
   -9.0660   -0.6010    4.3189 O   0  0  0  0  0  0  0  0  0  0  0  0
   -4.7699    2.4070   -0.5825 O   0  0  0  0  0  0  0  0  0  0  0  0
   -5.3001    3.5899    0.0308 C   0  0  1  0  0  0  0  0  0  0  0  0
   -4.1932    4.6708    0.0840 C   0  0  1  0  0  0  0  0  0  0  0  0
   -4.8291    6.0587    0.0367 C   0  0  2  0  0  0  0  0  0  0  0  0
   -5.6624    6.2276   -1.2450 C   0  0  2  0  0  0  0  0  0  0  0  0
   -6.1789    4.8786   -1.7579 C   0  0  0  0  0  0  0  0  0  0  0  0
   -6.4786    4.0147   -0.6699 O   0  0  0  0  0  0  0  0  0  0  0  0
   -4.8617    6.8909   -2.2362 O   0  0  0  0  0  0  0  0  0  0  0  0
   -3.8015    7.0571    0.1177 O   0  0  0  0  0  0  0  0  0  0  0  0
   -3.4263    4.5476    1.2956 O   0  0  0  0  0  0  0  0  0  0  0  0
   -6.4002   -0.5233   -1.6827 O   0  0  0  0  0  0  0  0  0  0  0  0
   -3.6512   -1.4886   -2.0660 O   0  0  0  0  0  0  0  0  0  0  0  0
   -3.7272   -2.9166   -2.0936 C   0  0  1  0  0  0  0  0  0  0  0  0
   -4.0991   -3.3187   -3.5294 C   0  0  1  0  0  0  0  0  0  0  0  0
   -4.1460   -4.8433   -3.6218 C   0  0  2  0  0  0  0  0  0  0  0  0
   -2.8207   -5.4535   -3.1456 C   0  0  1  0  0  0  0  0  0  0  0  0
   -2.4617   -4.9011   -1.7512 C   0  0  2  0  0  0  0  0  0  0  0  0
   -2.4671   -3.4714   -1.7446 O   0  0  0  0  0  0  0  0  0  0  0  0
   -1.0730   -5.3856   -1.3081 C   0  0  0  0  0  0  0  0  0  0  0  0
   -1.0259   -6.7944   -1.1135 O   0  0  0  0  0  0  0  0  0  0  0  0
   -2.8739   -6.8847   -3.1067 O   0  0  0  0  0  0  0  0  0  0  0  0
   -4.4275   -5.2478   -4.9681 O   0  0  0  0  0  0  0  0  0  0  0  0
   -5.3860   -2.8030   -3.9076 O   0  0  0  0  0  0  0  0  0  0  0  0
    2.3983   -3.2025   -0.6775 C   0  0  0  0  0  0  0  0  0  0  0  0
    6.7576   -2.0587   -0.2575 C   0  0  0  0  0  0  0  0  0  0  0  0
    9.5038   -0.7883    2.5489 C   0  0  0  0  0  0  0  0  0  0  0  0
   10.1878    1.5113    1.0600 O   0  0  0  0  0  0  0  0  0  0  0  0
   11.0822    2.4361    0.4450 C   0  0  0  0  0  0  0  0  0  0  0  0
   13.4122    3.0378   -0.9326 H   0  0  0  0  0  0  0  0  0  0  0  0
   12.1530    4.1588   -1.4701 H   0  0  0  0  0  0  0  0  0  0  0  0
   12.7510    2.9077   -2.5699 H   0  0  0  0  0  0  0  0  0  0  0  0
   10.5175    2.3502   -1.6272 H   0  0  0  0  0  0  0  0  0  0  0  0
   11.7593    0.4511   -2.2860 H   0  0  0  0  0  0  0  0  0  0  0  0
   12.8869    0.5726   -0.9499 H   0  0  0  0  0  0  0  0  0  0  0  0
   11.6377   -0.6922    0.3811 H   0  0  0  0  0  0  0  0  0  0  0  0
   10.6720   -1.0931   -1.0421 H   0  0  0  0  0  0  0  0  0  0  0  0
    9.0007   -1.5743    0.6434 H   0  0  0  0  0  0  0  0  0  0  0  0
    7.3279    0.4970    2.0557 H   0  0  0  0  0  0  0  0  0  0  0  0
    7.6395    2.0508    0.4144 H   0  0  0  0  0  0  0  0  0  0  0  0
    6.5695    0.2968   -1.7879 H   0  0  0  0  0  0  0  0  0  0  0  0
    5.9603    1.8375   -1.1801 H   0  0  0  0  0  0  0  0  0  0  0  0
    5.1441    0.8554    0.8591 H   0  0  0  0  0  0  0  0  0  0  0  0
    6.1912   -2.2799    2.4158 H   0  0  0  0  0  0  0  0  0  0  0  0
    5.3727   -0.7425    2.6546 H   0  0  0  0  0  0  0  0  0  0  0  0
    3.7138   -2.4769    2.3617 H   0  0  0  0  0  0  0  0  0  0  0  0
    4.4694   -3.0522    0.8959 H   0  0  0  0  0  0  0  0  0  0  0  0
    2.9976   -0.4235    1.3573 H   0  0  0  0  0  0  0  0  0  0  0  0
    4.3460   -1.1333   -1.2872 H   0  0  0  0  0  0  0  0  0  0  0  0
    3.5002    0.7624   -2.1639 H   0  0  0  0  0  0  0  0  0  0  0  0
    3.5587    1.6787   -0.6716 H   0  0  0  0  0  0  0  0  0  0  0  0
    1.5066    0.9338    0.0892 H   0  0  0  0  0  0  0  0  0  0  0  0
    1.2503    1.1483   -1.6320 H   0  0  0  0  0  0  0  0  0  0  0  0
    1.6712   -1.2538   -2.0212 H   0  0  0  0  0  0  0  0  0  0  0  0
    0.4253   -3.1282    0.8481 H   0  0  0  0  0  0  0  0  0  0  0  0
    1.5517   -2.5976    2.0664 H   0  0  0  0  0  0  0  0  0  0  0  0
   -0.6189   -1.5161    2.3471 H   0  0  0  0  0  0  0  0  0  0  0  0
    0.6176   -0.3249    1.9721 H   0  0  0  0  0  0  0  0  0  0  0  0
   -0.8146    0.4529    0.4575 H   0  0  0  0  0  0  0  0  0  0  0  0
   -0.6179   -0.4267   -1.7821 H   0  0  0  0  0  0  0  0  0  0  0  0
   -0.4583   -2.0691   -1.2292 H   0  0  0  0  0  0  0  0  0  0  0  0
   -2.6356    0.5768   -0.5935 H   0  0  0  0  0  0  0  0  0  0  0  0
   -4.6743   -1.6738   -0.2525 H   0  0  0  0  0  0  0  0  0  0  0  0
   -4.8251    0.6475   -2.2067 H   0  0  0  0  0  0  0  0  0  0  0  0
   -6.5610    1.4355   -0.2369 H   0  0  0  0  0  0  0  0  0  0  0  0
   -5.0925    1.5565    1.8972 H   0  0  0  0  0  0  0  0  0  0  0  0
   -6.5202   -0.9072    0.9812 H   0  0  0  0  0  0  0  0  0  0  0  0
   -5.2651   -1.1890    2.1788 H   0  0  0  0  0  0  0  0  0  0  0  0
   -8.4980   -0.1607    1.7215 H   0  0  0  0  0  0  0  0  0  0  0  0
   -8.3927    1.3070    4.4178 H   0  0  0  0  0  0  0  0  0  0  0  0
  -10.8905    0.4535    2.8764 H   0  0  0  0  0  0  0  0  0  0  0  0
  -10.5267    2.0749    1.3576 H   0  0  0  0  0  0  0  0  0  0  0  0
   -8.6420    3.6587    1.4171 H   0  0  0  0  0  0  0  0  0  0  0  0
   -8.3029    3.2804    3.0872 H   0  0  0  0  0  0  0  0  0  0  0  0
  -11.3376    3.2461    3.6191 H   0  0  0  0  0  0  0  0  0  0  0  0
  -10.8667    0.9049    5.1323 H   0  0  0  0  0  0  0  0  0  0  0  0
   -8.1762   -1.0115    4.3322 H   0  0  0  0  0  0  0  0  0  0  0  0
   -5.6115    3.3745    1.0561 H   0  0  0  0  0  0  0  0  0  0  0  0
   -3.4821    4.5457   -0.7405 H   0  0  0  0  0  0  0  0  0  0  0  0
   -5.4650    6.1835    0.9202 H   0  0  0  0  0  0  0  0  0  0  0  0
   -6.5031    6.8948   -1.0211 H   0  0  0  0  0  0  0  0  0  0  0  0
   -7.0969    5.0386   -2.3379 H   0  0  0  0  0  0  0  0  0  0  0  0
   -5.4694    4.3967   -2.4420 H   0  0  0  0  0  0  0  0  0  0  0  0
   -5.3317    6.8569   -3.0875 H   0  0  0  0  0  0  0  0  0  0  0  0
   -3.7699    7.4661   -0.7760 H   0  0  0  0  0  0  0  0  0  0  0  0
   -2.8368    5.3273    1.3056 H   0  0  0  0  0  0  0  0  0  0  0  0
   -6.9429    0.1215   -2.1771 H   0  0  0  0  0  0  0  0  0  0  0  0
   -4.5053   -3.2799   -1.4086 H   0  0  0  0  0  0  0  0  0  0  0  0
   -3.3755   -2.9153   -4.2472 H   0  0  0  0  0  0  0  0  0  0  0  0
   -4.9767   -5.2339   -3.0230 H   0  0  0  0  0  0  0  0  0  0  0  0
   -2.0363   -5.1889   -3.8666 H   0  0  0  0  0  0  0  0  0  0  0  0
   -3.1928   -5.2702   -1.0176 H   0  0  0  0  0  0  0  0  0  0  0  0
   -0.3111   -5.1103   -2.0449 H   0  0  0  0  0  0  0  0  0  0  0  0
   -0.7912   -4.9024   -0.3679 H   0  0  0  0  0  0  0  0  0  0  0  0
   -1.5196   -7.2029   -1.8547 H   0  0  0  0  0  0  0  0  0  0  0  0
   -3.8121   -7.1611   -3.0613 H   0  0  0  0  0  0  0  0  0  0  0  0
   -5.1016   -4.6196   -5.2959 H   0  0  0  0  0  0  0  0  0  0  0  0
   -5.4024   -1.8787   -3.5838 H   0  0  0  0  0  0  0  0  0  0  0  0
    3.2151   -3.0686   -1.3945 H   0  0  0  0  0  0  0  0  0  0  0  0
    2.6939   -3.9813    0.0342 H   0  0  0  0  0  0  0  0  0  0  0  0
    1.5391   -3.5931   -1.2331 H   0  0  0  0  0  0  0  0  0  0  0  0
    7.4013   -1.6995   -1.0667 H   0  0  0  0  0  0  0  0  0  0  0  0
    7.2998   -2.8513    0.2725 H   0  0  0  0  0  0  0  0  0  0  0  0
    5.8981   -2.5370   -0.7336 H   0  0  0  0  0  0  0  0  0  0  0  0
   10.5241   -1.1915    2.5344 H   0  0  0  0  0  0  0  0  0  0  0  0
    8.8710   -1.4911    3.1042 H   0  0  0  0  0  0  0  0  0  0  0  0
    9.5254    0.1540    3.1115 H   0  0  0  0  0  0  0  0  0  0  0  0
   11.9970    2.4406    1.0482 H   0  0  0  0  0  0  0  0  0  0  0  0
   10.6370    3.4296    0.5448 H   0  0  0  0  0  0  0  0  0  0  0  0
  1  2  1  0
  2  3  1  0
  3  4  1  0
  4  5  1  0
  5  6  1  0
  6  7  1  0
  7  8  1  0
  8  9  1  0
  8 10  1  0
 10 11  1  0
 11 12  1  0
 12 13  1  0
 13 14  1  0
 14 15  1  0
 15 16  1  0
 16 17  1  0
 17 18  1  0
 18 19  1  0
 19 20  1  0
 20 21  1  0
 21 22  1  0
 22 23  1  0
 23 24  1  0
 23 25  1  0
 25 26  1  0
 26 27  1  0
 27 28  1  0
 28 29  1  0
 29 30  1  0
 30 31  1  0
 30 32  1  0
 32 33  1  0
 33 34  1  0
 34 35  1  0
 35 36  1  0
 36 37  1  0
 37 38  1  0
 38 39  1  0
 37 40  1  0
 36 41  1  0
 35 42  1  0
 29 43  1  0
 43 44  1  0
 44 45  1  0
 45 46  1  0
 46 47  1  0
 47 48  1  0
 48 49  1  0
 47 50  1  0
 46 51  1  0
 45 52  1  0
 28 53  1  0
 27 54  1  0
 54 55  1  0
 55 56  1  0
 56 57  1  0
 57 58  1  0
 58 59  1  0
 59 60  1  0
 59 61  1  0
 61 62  1  0
 58 63  1  0
 57 64  1  0
 56 65  1  0
 20 66  1  6
 12 67  1  6
  6 68  1  0
  5 69  1  1
 69 70  1  0
 70  2  1  0
  9  5  1  0
 60 55  1  0
 12  7  1  0
 16 11  1  0
 20 15  1  0
 24 19  1  0
 31 26  1  0
 39 34  1  0
 49 44  1  0
  1 71  1  0
  1 72  1  0
  1 73  1  0
  2 74  1  6
  3 75  1  0
  3 76  1  0
  4 77  1  0
  4 78  1  0
  6 79  1  6
  7 80  1  1
  8 81  1  1
 10 82  1  0
 10 83  1  0
 11 84  1  1
 13 85  1  0
 13 86  1  0
 14 87  1  0
 14 88  1  0
 15 89  1  1
 16 90  1  6
 17 91  1  0
 17 92  1  0
 18 93  1  0
 18 94  1  0
 19 95  1  6
 21 96  1  0
 21 97  1  0
 22 98  1  0
 22 99  1  0
 23100  1  6
 24101  1  0
 24102  1  0
 26103  1  6
 27104  1  1
 28105  1  6
 29106  1  1
 30107  1  1
 32108  1  0
 32109  1  0
 34110  1  6
 35111  1  1
 36112  1  6
 37113  1  6
 38114  1  0
 38115  1  0
 40116  1  0
 41117  1  0
 42118  1  0
 44119  1  1
 45120  1  6
 46121  1  1
 47122  1  1
 48123  1  0
 48124  1  0
 50125  1  0
 51126  1  0
 52127  1  0
 53128  1  0
 55129  1  1
 56130  1  6
 57131  1  1
 58132  1  6
 59133  1  1
 61134  1  0
 61135  1  0
 62136  1  0
 63137  1  0
 64138  1  0
 65139  1  0
 66140  1  0
 66141  1  0
 66142  1  0
 67143  1  0
 67144  1  0
 67145  1  0
 68146  1  0
 68147  1  0
 68148  1  0
 70149  1  0
 70150  1  0
M  END
$$$$
