
     RDKit          3D

 48 50  0  0  0  0  0  0  0  0999 V2000
    9.8642   -1.1192    0.7659 C   0  0  0  0  0  0  0  0  0  0  0  0
    8.4496   -0.8872    0.8638 N   0  0  0  0  0  0  0  0  0  0  0  0
    7.6314   -0.8668   -0.2441 C   0  0  0  0  0  0  0  0  0  0  0  0
    7.9980   -1.1491   -1.3792 O   0  0  0  0  0  0  0  0  0  0  0  0
    6.2212   -0.4425    0.0404 C   0  0  0  0  0  0  0  0  0  0  0  0
    5.9390   -0.1259    1.3374 N   0  0  0  0  0  0  0  0  0  0  0  0
    4.6740    0.2672    1.5942 C   0  0  0  0  0  0  0  0  0  0  0  0
    3.6843    0.3693    0.6303 C   0  0  0  0  0  0  0  0  0  0  0  0
    4.0062    0.0417   -0.6862 C   0  0  0  0  0  0  0  0  0  0  0  0
    5.2989   -0.3738   -0.9912 C   0  0  0  0  0  0  0  0  0  0  0  0
    3.1492    0.1103   -1.7657 O   0  0  0  0  0  0  0  0  0  0  0  0
    1.8312    0.3893   -1.5220 C   0  0  0  0  0  0  0  0  0  0  0  0
    0.9549   -0.6364   -1.1779 C   0  0  0  0  0  0  0  0  0  0  0  0
   -0.3938   -0.3470   -0.9576 C   0  0  0  0  0  0  0  0  0  0  0  0
   -0.8729    0.9620   -1.0942 C   0  0  0  0  0  0  0  0  0  0  0  0
    0.0192    1.9780   -1.4680 C   0  0  0  0  0  0  0  0  0  0  0  0
    1.3689    1.6928   -1.6884 C   0  0  0  0  0  0  0  0  0  0  0  0
   -2.2191    1.3362   -0.8820 N   0  0  0  0  0  0  0  0  0  0  0  0
   -3.2665    0.5232   -0.4731 C   0  0  0  0  0  0  0  0  0  0  0  0
   -3.1648   -0.6688   -0.2084 O   0  0  0  0  0  0  0  0  0  0  0  0
   -4.4485    1.2466   -0.4001 N   0  0  0  0  0  0  0  0  0  0  0  0
   -5.7270    0.7679   -0.0369 C   0  0  0  0  0  0  0  0  0  0  0  0
   -6.0049   -0.5653    0.2870 C   0  0  0  0  0  0  0  0  0  0  0  0
   -7.3057   -0.9828    0.6467 C   0  0  0  0  0  0  0  0  0  0  0  0
   -8.3324   -0.0318    0.6750 C   0  0  0  0  0  0  0  0  0  0  0  0
   -8.0639    1.3016    0.3500 C   0  0  0  0  0  0  0  0  0  0  0  0
   -6.7709    1.6988   -0.0041 C   0  0  0  0  0  0  0  0  0  0  0  0
   -9.9550   -0.4372    1.1023 Cl  0  0  0  0  0  0  0  0  0  0  0  0
   -7.5599   -2.4275    0.9865 C   0  0  0  0  0  0  0  0  0  0  0  0
   -8.0344   -2.6004    2.2504 F   0  0  0  0  0  0  0  0  0  0  0  0
   -6.4431   -3.2082    0.9104 F   0  0  0  0  0  0  0  0  0  0  0  0
   -8.4636   -3.0147    0.1521 F   0  0  0  0  0  0  0  0  0  0  0  0
   10.3474   -0.1939    0.4396 H   0  0  0  0  0  0  0  0  0  0  0  0
   10.2411   -1.4059    1.7488 H   0  0  0  0  0  0  0  0  0  0  0  0
   10.0683   -1.9097    0.0384 H   0  0  0  0  0  0  0  0  0  0  0  0
    8.0414   -0.5293    1.7235 H   0  0  0  0  0  0  0  0  0  0  0  0
    4.4654    0.5128    2.6335 H   0  0  0  0  0  0  0  0  0  0  0  0
    2.6953    0.7018    0.9243 H   0  0  0  0  0  0  0  0  0  0  0  0
    5.5779   -0.6324   -2.0065 H   0  0  0  0  0  0  0  0  0  0  0  0
    1.3142   -1.6575   -1.0799 H   0  0  0  0  0  0  0  0  0  0  0  0
   -1.0443   -1.1735   -0.6882 H   0  0  0  0  0  0  0  0  0  0  0  0
   -0.3217    3.0025   -1.5953 H   0  0  0  0  0  0  0  0  0  0  0  0
    2.0562    2.4810   -1.9846 H   0  0  0  0  0  0  0  0  0  0  0  0
   -2.4307    2.3091   -1.0253 H   0  0  0  0  0  0  0  0  0  0  0  0
   -4.3934    2.2273   -0.6247 H   0  0  0  0  0  0  0  0  0  0  0  0
   -5.2173   -1.3168    0.2655 H   0  0  0  0  0  0  0  0  0  0  0  0
   -8.8633    2.0409    0.3722 H   0  0  0  0  0  0  0  0  0  0  0  0
   -6.6002    2.7431   -0.2503 H   0  0  0  0  0  0  0  0  0  0  0  0
  1  2  1  0
  2  3  1  0
  3  4  2  0
  3  5  1  0
  5  6  2  0
  6  7  1  0
  7  8  2  0
  8  9  1  0
  9 10  2  0
  9 11  1  0
 11 12  1  0
 12 13  2  0
 13 14  1  0
 14 15  2  0
 15 16  1  0
 16 17  2  0
 15 18  1  0
 18 19  1  0
 19 20  2  0
 19 21  1  0
 21 22  1  0
 22 23  2  0
 23 24  1  0
 24 25  2  0
 25 26  1  0
 26 27  2  0
 25 28  1  0
 24 29  1  0
 29 30  1  0
 29 31  1  0
 29 32  1  0
 10  5  1  0
 17 12  1  0
 27 22  1  0
  1 33  1  0
  1 34  1  0
  1 35  1  0
  2 36  1  0
  7 37  1  0
  8 38  1  0
 10 39  1  0
 13 40  1  0
 14 41  1  0
 16 42  1  0
 17 43  1  0
 18 44  1  0
 21 45  1  0
 23 46  1  0
 26 47  1  0
 27 48  1  0
M  END
$$$$
