
     RDKit          3D

 49 52  0  0  0  0  0  0  0  0999 V2000
   -4.9186    0.0817    2.7333 C   0  0  0  0  0  0  0  0  0  0  0  0
   -4.2786    0.0282    1.4190 C   0  0  0  0  0  0  0  0  0  0  0  0
   -3.7481   -0.0097    0.3412 C   0  0  0  0  0  0  0  0  0  0  0  0
   -3.1102   -0.0585   -0.9925 C   0  0  2  0  0  0  0  0  0  0  0  0
   -3.0018   -1.5283   -1.4779 C   0  0  0  0  0  0  0  0  0  0  0  0
   -1.5529   -1.9815   -1.2027 C   0  0  0  0  0  0  0  0  0  0  0  0
   -0.9240   -0.8259   -0.4278 C   0  0  2  0  0  0  0  0  0  0  0  0
   -1.6280    0.4224   -1.0058 C   0  0  2  0  0  0  0  0  0  0  0  0
   -1.2689    1.6284   -0.1194 C   0  0  0  0  0  0  0  0  0  0  0  0
    0.2551    1.8148    0.0185 C   0  0  0  0  0  0  0  0  0  0  0  0
    0.9949    0.5278    0.4698 C   0  0  1  0  0  0  0  0  0  0  0  0
    0.6005   -0.6894   -0.4198 C   0  0  1  0  0  0  0  0  0  0  0  0
    1.2966   -1.9424    0.1167 C   0  0  0  0  0  0  0  0  0  0  0  0
    2.8076   -1.8036   -0.0414 C   0  0  0  0  0  0  0  0  0  0  0  0
    3.3494   -0.4593    0.3826 C   0  0  0  0  0  0  0  0  0  0  0  0
    2.5124    0.6611    0.5854 C   0  0  0  0  0  0  0  0  0  0  0  0
    3.1071    1.8729    0.9813 C   0  0  0  0  0  0  0  0  0  0  0  0
    4.4910    1.9870    1.1289 C   0  0  0  0  0  0  0  0  0  0  0  0
    5.2992    0.8874    0.8962 C   0  0  0  0  0  0  0  0  0  0  0  0
    4.7435   -0.3306    0.5256 C   0  0  0  0  0  0  0  0  0  0  0  0
    6.6452    1.0409    1.0472 O   0  0  0  0  0  0  0  0  0  0  0  0
   -1.2082    0.7557   -2.4687 C   0  0  0  0  0  0  0  0  0  0  0  0
   -3.9146    0.6932   -1.8903 O   0  0  0  0  0  0  0  0  0  0  0  0
   -4.1796    0.2694    3.5180 H   0  0  0  0  0  0  0  0  0  0  0  0
   -5.6644    0.8815    2.7706 H   0  0  0  0  0  0  0  0  0  0  0  0
   -5.4219   -0.8632    2.9595 H   0  0  0  0  0  0  0  0  0  0  0  0
   -3.2183   -1.6134   -2.5498 H   0  0  0  0  0  0  0  0  0  0  0  0
   -3.7121   -2.1882   -0.9651 H   0  0  0  0  0  0  0  0  0  0  0  0
   -1.5338   -2.9128   -0.6272 H   0  0  0  0  0  0  0  0  0  0  0  0
   -1.0275   -2.1660   -2.1464 H   0  0  0  0  0  0  0  0  0  0  0  0
   -1.2306   -0.9553    0.6225 H   0  0  0  0  0  0  0  0  0  0  0  0
   -1.7177    2.5465   -0.5173 H   0  0  0  0  0  0  0  0  0  0  0  0
   -1.6729    1.5012    0.8918 H   0  0  0  0  0  0  0  0  0  0  0  0
    0.6792    2.1784   -0.9249 H   0  0  0  0  0  0  0  0  0  0  0  0
    0.4119    2.6170    0.7490 H   0  0  0  0  0  0  0  0  0  0  0  0
    0.6502    0.3163    1.4939 H   0  0  0  0  0  0  0  0  0  0  0  0
    0.9598   -0.5287   -1.4443 H   0  0  0  0  0  0  0  0  0  0  0  0
    1.0434   -2.0899    1.1746 H   0  0  0  0  0  0  0  0  0  0  0  0
    0.9672   -2.8403   -0.4178 H   0  0  0  0  0  0  0  0  0  0  0  0
    3.2942   -2.5987    0.5363 H   0  0  0  0  0  0  0  0  0  0  0  0
    3.0718   -1.9543   -1.0960 H   0  0  0  0  0  0  0  0  0  0  0  0
    2.5066    2.7534    1.1906 H   0  0  0  0  0  0  0  0  0  0  0  0
    4.9323    2.9330    1.4287 H   0  0  0  0  0  0  0  0  0  0  0  0
    5.3800   -1.1924    0.3457 H   0  0  0  0  0  0  0  0  0  0  0  0
    7.0755    0.1937    0.8484 H   0  0  0  0  0  0  0  0  0  0  0  0
   -0.1378    0.9498   -2.5727 H   0  0  0  0  0  0  0  0  0  0  0  0
   -1.7248    1.6562   -2.8213 H   0  0  0  0  0  0  0  0  0  0  0  0
   -1.4504   -0.0495   -3.1693 H   0  0  0  0  0  0  0  0  0  0  0  0
   -4.8292    0.3839   -1.7752 H   0  0  0  0  0  0  0  0  0  0  0  0
  1  2  1  0
  2  3  3  0
  4  3  1  1
  4  5  1  0
  5  6  1  0
  6  7  1  0
  7  8  1  0
  8  9  1  0
  9 10  1  0
 10 11  1  0
 11 12  1  0
 12 13  1  0
 13 14  1  0
 14 15  1  0
 15 16  2  0
 16 17  1  0
 17 18  2  0
 18 19  1  0
 19 20  2  0
 19 21  1  0
  8 22  1  6
  4 23  1  0
  8  4  1  0
 12  7  1  0
 16 11  1  0
 20 15  1  0
  1 24  1  0
  1 25  1  0
  1 26  1  0
  5 27  1  0
  5 28  1  0
  6 29  1  0
  6 30  1  0
  7 31  1  1
  9 32  1  0
  9 33  1  0
 10 34  1  0
 10 35  1  0
 11 36  1  1
 12 37  1  6
 13 38  1  0
 13 39  1  0
 14 40  1  0
 14 41  1  0
 17 42  1  0
 18 43  1  0
 20 44  1  0
 21 45  1  0
 22 46  1  0
 22 47  1  0
 22 48  1  0
 23 49  1  0
M  END
$$$$
