
     RDKit          3D

 32 34  0  0  0  0  0  0  0  0999 V2000
   -2.1512    1.3774   -0.3960 C   0  0  0  0  0  0  0  0  0  0  0  0
   -3.6519    1.5609   -0.2445 C   0  0  0  0  0  0  0  0  0  0  0  0
   -4.1454    0.9154    1.0261 C   0  0  0  0  0  0  0  0  0  0  0  0
   -5.0415    1.4137    1.7111 O   0  0  0  0  0  0  0  0  0  0  0  0
   -3.5526   -0.2724    1.3728 N   0  0  0  0  0  0  0  0  0  0  0  0
   -2.3878   -0.8015    0.8625 C   0  0  0  0  0  0  0  0  0  0  0  0
   -1.9169   -1.8362    1.3542 O   0  0  0  0  0  0  0  0  0  0  0  0
   -1.7886   -0.1023   -0.3646 C   0  0  0  0  0  0  0  0  0  0  0  0
   -0.3400   -0.2871   -0.4492 N   0  0  0  0  0  0  0  0  0  0  0  0
    0.5868    0.1193    0.6006 C   0  0  0  0  0  0  0  0  0  0  0  0
    1.9112   -0.3120    0.0606 C   0  0  0  0  0  0  0  0  0  0  0  0
    1.7275   -0.9391   -1.1729 C   0  0  0  0  0  0  0  0  0  0  0  0
    0.2914   -0.9421   -1.4827 C   0  0  0  0  0  0  0  0  0  0  0  0
   -0.2045   -1.4127   -2.4934 O   0  0  0  0  0  0  0  0  0  0  0  0
    2.7793   -1.3978   -1.9387 C   0  0  0  0  0  0  0  0  0  0  0  0
    4.0650   -1.1882   -1.4415 C   0  0  0  0  0  0  0  0  0  0  0  0
    4.2622   -0.5486   -0.2008 C   0  0  0  0  0  0  0  0  0  0  0  0
    3.1797   -0.1475    0.5993 C   0  0  0  0  0  0  0  0  0  0  0  0
    3.3891    0.5762    1.7701 N   0  0  0  0  0  0  0  0  0  0  0  0
   -1.8292    1.8202   -1.3482 H   0  0  0  0  0  0  0  0  0  0  0  0
   -1.6434    1.9311    0.4041 H   0  0  0  0  0  0  0  0  0  0  0  0
   -4.1892    1.1220   -1.0907 H   0  0  0  0  0  0  0  0  0  0  0  0
   -3.8906    2.6281   -0.2175 H   0  0  0  0  0  0  0  0  0  0  0  0
   -3.9068   -0.7226    2.2053 H   0  0  0  0  0  0  0  0  0  0  0  0
   -2.2459   -0.5914   -1.2345 H   0  0  0  0  0  0  0  0  0  0  0  0
    0.5449    1.2075    0.7202 H   0  0  0  0  0  0  0  0  0  0  0  0
    0.3531   -0.3965    1.5311 H   0  0  0  0  0  0  0  0  0  0  0  0
    2.6078   -1.8724   -2.8980 H   0  0  0  0  0  0  0  0  0  0  0  0
    4.9270   -1.5029   -2.0251 H   0  0  0  0  0  0  0  0  0  0  0  0
    5.2793   -0.3729    0.1354 H   0  0  0  0  0  0  0  0  0  0  0  0
    4.3243    0.4763    2.1769 H   0  0  0  0  0  0  0  0  0  0  0  0
    2.6568    0.4981    2.4680 H   0  0  0  0  0  0  0  0  0  0  0  0
  1  2  1  0
  2  3  1  0
  3  4  2  0
  3  5  1  0
  5  6  1  0
  6  7  2  0
  6  8  1  0
  8  9  1  0
  9 10  1  0
 10 11  1  0
 11 12  2  0
 12 13  1  0
 13 14  2  0
 12 15  1  0
 15 16  2  0
 16 17  1  0
 17 18  2  0
 18 19  1  0
  8  1  1  0
 13  9  1  0
 18 11  1  0
  1 20  1  0
  1 21  1  0
  2 22  1  0
  2 23  1  0
  5 24  1  0
  8 25  1  0
 10 26  1  0
 10 27  1  0
 15 28  1  0
 16 29  1  0
 17 30  1  0
 19 31  1  0
 19 32  1  0
M  END
$$$$
