
     RDKit          3D

 73 76  0  0  0  0  0  0  0  0999 V2000
    7.5745    0.8884    2.5360 C   0  0  0  0  0  0  0  0  0  0  0  0
    6.1402    1.3832    2.4745 C   0  0  0  0  0  0  0  0  0  0  0  0
    5.4740    1.0274    1.1674 C   0  0  0  0  0  0  0  0  0  0  0  0
    6.0232    0.5046    0.2094 O   0  0  0  0  0  0  0  0  0  0  0  0
    4.1650    1.4083    1.2101 O   0  0  0  0  0  0  0  0  0  0  0  0
    3.3809    0.9994    0.0855 C   0  0  0  0  0  0  0  0  0  0  0  0
    2.7755   -0.3896    0.3051 C   0  0  0  0  0  0  0  0  0  0  0  0
    3.2260   -1.1329    1.1820 O   0  0  0  0  0  0  0  0  0  0  0  0
    1.4994   -0.7498   -0.5218 C   0  0  1  0  0  0  0  0  0  0  0  0
    1.2488   -2.2763   -0.8692 C   0  0  2  0  0  0  0  0  0  0  0  0
   -0.2320   -2.5737   -0.5252 C   0  0  0  0  0  0  0  0  0  0  0  0
   -0.8715   -1.1941   -0.4734 C   0  0  2  0  0  0  0  0  0  0  0  0
    0.1846   -0.3538    0.2831 C   0  0  2  0  0  0  0  0  0  0  0  0
   -0.2557    1.1273    0.1841 C   0  0  0  0  0  0  0  0  0  0  0  0
   -1.7010    1.3824    0.6736 C   0  0  1  0  0  0  0  0  0  0  0  0
   -2.7448    0.4271    0.0173 C   0  0  1  0  0  0  0  0  0  0  0  0
   -2.2947   -1.0695    0.0957 C   0  0  1  0  0  0  0  0  0  0  0  0
   -3.2643   -1.9816   -0.6807 C   0  0  0  0  0  0  0  0  0  0  0  0
   -4.7113   -1.8101   -0.2320 C   0  0  0  0  0  0  0  0  0  0  0  0
   -5.1183   -0.3612   -0.3068 C   0  0  0  0  0  0  0  0  0  0  0  0
   -6.1558    0.0150   -1.0755 C   0  0  0  0  0  0  0  0  0  0  0  0
   -6.5453    1.4319   -1.2226 C   0  0  0  0  0  0  0  0  0  0  0  0
   -7.5004    1.7627   -1.9137 O   0  0  0  0  0  0  0  0  0  0  0  0
   -5.7365    2.4331   -0.5029 C   0  0  0  0  0  0  0  0  0  0  0  0
   -4.7028    2.0634    0.2649 C   0  0  0  0  0  0  0  0  0  0  0  0
   -4.2434    0.6228    0.4917 C   0  0  2  0  0  0  0  0  0  0  0  0
   -4.4670    0.3388    1.9951 C   0  0  0  0  0  0  0  0  0  0  0  0
   -2.7179    0.7550   -1.3314 F   0  0  0  0  0  0  0  0  0  0  0  0
   -1.7364    1.3359    2.0952 O   0  0  0  0  0  0  0  0  0  0  0  0
    0.3154   -0.7609    1.7777 C   0  0  0  0  0  0  0  0  0  0  0  0
    2.1679   -3.3211   -0.2491 C   0  0  0  0  0  0  0  0  0  0  0  0
    1.4465   -0.0010   -1.7725 O   0  0  0  0  0  0  0  0  0  0  0  0
    2.4082   -0.2222   -2.7098 C   0  0  0  0  0  0  0  0  0  0  0  0
    3.3749   -0.9502   -2.5532 O   0  0  0  0  0  0  0  0  0  0  0  0
    2.1306    0.5788   -3.9525 C   0  0  0  0  0  0  0  0  0  0  0  0
    2.4339    2.0472   -3.7316 C   0  0  0  0  0  0  0  0  0  0  0  0
    7.6204   -0.1997    2.4216 H   0  0  0  0  0  0  0  0  0  0  0  0
    8.1790    1.3343    1.7391 H   0  0  0  0  0  0  0  0  0  0  0  0
    8.0277    1.1515    3.4967 H   0  0  0  0  0  0  0  0  0  0  0  0
    5.5680    0.9295    3.2910 H   0  0  0  0  0  0  0  0  0  0  0  0
    6.1234    2.4723    2.5864 H   0  0  0  0  0  0  0  0  0  0  0  0
    2.5753    1.7309   -0.0071 H   0  0  0  0  0  0  0  0  0  0  0  0
    3.9616    1.0234   -0.8405 H   0  0  0  0  0  0  0  0  0  0  0  0
    1.3286   -2.4101   -1.9560 H   0  0  0  0  0  0  0  0  0  0  0  0
   -0.3356   -3.0995    0.4305 H   0  0  0  0  0  0  0  0  0  0  0  0
   -0.6864   -3.2062   -1.2956 H   0  0  0  0  0  0  0  0  0  0  0  0
   -0.9238   -0.8394   -1.5154 H   0  0  0  0  0  0  0  0  0  0  0  0
    0.4358    1.7528    0.7602 H   0  0  0  0  0  0  0  0  0  0  0  0
   -0.2011    1.4694   -0.8562 H   0  0  0  0  0  0  0  0  0  0  0  0
   -1.9444    2.4123    0.3879 H   0  0  0  0  0  0  0  0  0  0  0  0
   -2.3019   -1.4022    1.1383 H   0  0  0  0  0  0  0  0  0  0  0  0
   -3.1912   -1.7738   -1.7564 H   0  0  0  0  0  0  0  0  0  0  0  0
   -2.9813   -3.0318   -0.5435 H   0  0  0  0  0  0  0  0  0  0  0  0
   -4.8346   -2.1784    0.7928 H   0  0  0  0  0  0  0  0  0  0  0  0
   -5.3539   -2.4377   -0.8615 H   0  0  0  0  0  0  0  0  0  0  0  0
   -6.7531   -0.6890   -1.6437 H   0  0  0  0  0  0  0  0  0  0  0  0
   -6.0336    3.4676   -0.6236 H   0  0  0  0  0  0  0  0  0  0  0  0
   -4.1625    2.8464    0.7923 H   0  0  0  0  0  0  0  0  0  0  0  0
   -5.5372    0.2509    2.2253 H   0  0  0  0  0  0  0  0  0  0  0  0
   -3.9931   -0.5906    2.3242 H   0  0  0  0  0  0  0  0  0  0  0  0
   -4.0862    1.1438    2.6327 H   0  0  0  0  0  0  0  0  0  0  0  0
   -1.1165    2.0051    2.4360 H   0  0  0  0  0  0  0  0  0  0  0  0
   -0.6407   -0.7881    2.3031 H   0  0  0  0  0  0  0  0  0  0  0  0
    0.9528   -0.0513    2.3177 H   0  0  0  0  0  0  0  0  0  0  0  0
    0.7550   -1.7532    1.9080 H   0  0  0  0  0  0  0  0  0  0  0  0
    2.0890   -3.3483    0.8413 H   0  0  0  0  0  0  0  0  0  0  0  0
    3.2112   -3.1402   -0.5252 H   0  0  0  0  0  0  0  0  0  0  0  0
    1.9041   -4.3199   -0.6149 H   0  0  0  0  0  0  0  0  0  0  0  0
    2.7513    0.1811   -4.7628 H   0  0  0  0  0  0  0  0  0  0  0  0
    1.0866    0.4289   -4.2480 H   0  0  0  0  0  0  0  0  0  0  0  0
    3.4762    2.1907   -3.4277 H   0  0  0  0  0  0  0  0  0  0  0  0
    1.7987    2.4688   -2.9455 H   0  0  0  0  0  0  0  0  0  0  0  0
    2.2621    2.6152   -4.6508 H   0  0  0  0  0  0  0  0  0  0  0  0
  1  2  1  0
  2  3  1  0
  3  4  2  0
  3  5  1  0
  5  6  1  0
  6  7  1  0
  7  8  2  0
  7  9  1  0
  9 10  1  0
 10 11  1  0
 11 12  1  0
 12 13  1  0
 13 14  1  0
 14 15  1  0
 15 16  1  0
 16 17  1  0
 17 18  1  0
 18 19  1  0
 19 20  1  0
 20 21  2  0
 21 22  1  0
 22 23  2  0
 22 24  1  0
 24 25  2  0
 25 26  1  0
 26 27  1  1
 16 28  1  6
 15 29  1  0
 13 30  1  1
 10 31  1  0
  9 32  1  6
 32 33  1  0
 33 34  2  0
 33 35  1  0
 35 36  1  0
 13  9  1  0
 17 12  1  0
 26 16  1  0
 26 20  1  0
  1 37  1  0
  1 38  1  0
  1 39  1  0
  2 40  1  0
  2 41  1  0
  6 42  1  0
  6 43  1  0
 10 44  1  6
 11 45  1  0
 11 46  1  0
 12 47  1  6
 14 48  1  0
 14 49  1  0
 15 50  1  1
 17 51  1  1
 18 52  1  0
 18 53  1  0
 19 54  1  0
 19 55  1  0
 21 56  1  0
 24 57  1  0
 25 58  1  0
 27 59  1  0
 27 60  1  0
 27 61  1  0
 29 62  1  0
 30 63  1  0
 30 64  1  0
 30 65  1  0
 31 66  1  0
 31 67  1  0
 31 68  1  0
 35 69  1  0
 35 70  1  0
 36 71  1  0
 36 72  1  0
 36 73  1  0
M  END
$$$$
