
     RDKit          3D

 27 29  0  0  0  0  0  0  0  0999 V2000
    0.3020   -1.6319    0.3319 C   0  0  0  0  0  0  0  0  0  0  0  0
    1.4131   -0.6254    0.2007 C   0  0  0  0  0  0  0  0  0  0  0  0
    1.1689    0.7266   -0.0739 C   0  0  0  0  0  0  0  0  0  0  0  0
    2.2436    1.6225   -0.1858 C   0  0  0  0  0  0  0  0  0  0  0  0
    3.5539    1.1815   -0.0264 C   0  0  0  0  0  0  0  0  0  0  0  0
    3.8037   -0.1607    0.2466 C   0  0  0  0  0  0  0  0  0  0  0  0
    2.7414   -1.0588    0.3596 C   0  0  0  0  0  0  0  0  0  0  0  0
    2.0840    2.9563   -0.4521 O   0  0  0  0  0  0  0  0  0  0  0  0
   -0.2220    1.1995   -0.2440 C   0  0  0  0  0  0  0  0  0  0  0  0
   -0.4417    2.3870   -0.4855 O   0  0  0  0  0  0  0  0  0  0  0  0
   -1.3497    0.2502   -0.1248 C   0  0  0  0  0  0  0  0  0  0  0  0
   -1.0938   -1.0997    0.1501 C   0  0  0  0  0  0  0  0  0  0  0  0
   -2.1774   -1.9893    0.2603 C   0  0  0  0  0  0  0  0  0  0  0  0
   -3.4889   -1.5402    0.0993 C   0  0  0  0  0  0  0  0  0  0  0  0
   -3.7360   -0.1975   -0.1737 C   0  0  0  0  0  0  0  0  0  0  0  0
   -2.6720    0.6927   -0.2851 C   0  0  0  0  0  0  0  0  0  0  0  0
   -3.0002    1.9945   -0.5548 O   0  0  0  0  0  0  0  0  0  0  0  0
    0.3670   -2.0823    1.3308 H   0  0  0  0  0  0  0  0  0  0  0  0
    0.4660   -2.4191   -0.4153 H   0  0  0  0  0  0  0  0  0  0  0  0
    4.3771    1.8856   -0.1155 H   0  0  0  0  0  0  0  0  0  0  0  0
    4.8271   -0.5062    0.3713 H   0  0  0  0  0  0  0  0  0  0  0  0
    2.9564   -2.1046    0.5735 H   0  0  0  0  0  0  0  0  0  0  0  0
    1.1208    3.1310   -0.5404 H   0  0  0  0  0  0  0  0  0  0  0  0
   -2.0038   -3.0429    0.4733 H   0  0  0  0  0  0  0  0  0  0  0  0
   -4.3196   -2.2365    0.1865 H   0  0  0  0  0  0  0  0  0  0  0  0
   -4.7553    0.1580   -0.3001 H   0  0  0  0  0  0  0  0  0  0  0  0
   -2.1647    2.5095   -0.6068 H   0  0  0  0  0  0  0  0  0  0  0  0
  1  2  1  0
  2  3  2  0
  3  4  1  0
  4  5  2  0
  5  6  1  0
  6  7  2  0
  4  8  1  0
  3  9  1  0
  9 10  2  0
  9 11  1  0
 11 12  2  0
 12 13  1  0
 13 14  2  0
 14 15  1  0
 15 16  2  0
 16 17  1  0
 12  1  1  0
  7  2  1  0
 16 11  1  0
  1 18  1  0
  1 19  1  0
  5 20  1  0
  6 21  1  0
  7 22  1  0
  8 23  1  0
 13 24  1  0
 14 25  1  0
 15 26  1  0
 17 27  1  0
M  END
$$$$
