
     RDKit          3D

 80 83  0  0  0  0  0  0  0  0999 V2000
   -6.8231    1.2789    2.2756 C   0  0  0  0  0  0  0  0  0  0  0  0
   -5.7898    0.2122    1.9296 C   0  0  0  0  0  0  0  0  0  0  0  0
   -5.6828   -0.0378    0.4008 C   0  0  0  0  0  0  0  0  0  0  0  0
   -4.1908   -0.0645   -0.0301 C   0  0  0  0  0  0  0  0  0  0  0  0
   -3.4980    1.3035    0.0993 C   0  0  0  0  0  0  0  0  0  0  0  0
   -2.0892    1.3745   -0.5582 C   0  0  0  0  0  0  0  0  0  0  0  0
   -1.6321    2.8380   -0.4923 C   0  0  0  0  0  0  0  0  0  0  0  0
   -1.1064    0.3304    0.0472 C   0  0  0  0  0  0  0  0  0  0  0  0
   -0.8247    0.4968    1.5436 C   0  0  0  0  0  0  0  0  0  0  0  0
    0.3977   -0.3718    1.8280 C   0  0  0  0  0  0  0  0  0  0  0  0
    0.9085   -0.8971    0.4663 C   0  0  0  0  0  0  0  0  0  0  0  0
    2.4439   -1.0838    0.4809 C   0  0  0  0  0  0  0  0  0  0  0  0
    2.8940   -2.1040   -0.5813 C   0  0  0  0  0  0  0  0  0  0  0  0
    4.3716   -2.1432   -0.8072 C   0  0  0  0  0  0  0  0  0  0  0  0
    5.2369   -1.2203   -0.3550 C   0  0  0  0  0  0  0  0  0  0  0  0
    6.7257   -1.3967   -0.5683 C   0  0  0  0  0  0  0  0  0  0  0  0
    7.4103   -0.1276   -1.0826 C   0  0  0  0  0  0  0  0  0  0  0  0
    8.8266   -0.2991   -1.0801 O   0  0  0  0  0  0  0  0  0  0  0  0
    7.0720    1.0773   -0.2105 C   0  0  0  0  0  0  0  0  0  0  0  0
    5.5580    1.2635   -0.1086 C   0  0  0  0  0  0  0  0  0  0  0  0
    4.7903    0.0184    0.4244 C   0  0  0  0  0  0  0  0  0  0  0  0
    5.1731   -0.2016    1.9144 C   0  0  0  0  0  0  0  0  0  0  0  0
    3.2215    0.2515    0.3679 C   0  0  0  0  0  0  0  0  0  0  0  0
    2.6959    1.0470   -0.8405 C   0  0  0  0  0  0  0  0  0  0  0  0
    1.1946    1.3399   -0.7188 C   0  0  0  0  0  0  0  0  0  0  0  0
    0.3088    0.0879   -0.5835 C   0  0  0  0  0  0  0  0  0  0  0  0
    0.1303   -0.5543   -1.9724 C   0  0  0  0  0  0  0  0  0  0  0  0
   -6.4211   -1.3545   -0.0179 C   0  0  0  0  0  0  0  0  0  0  0  0
   -6.3675   -1.6028   -1.5325 C   0  0  0  0  0  0  0  0  0  0  0  0
   -7.8956   -1.3678    0.4108 C   0  0  0  0  0  0  0  0  0  0  0  0
   -6.5524    2.2402    1.8258 H   0  0  0  0  0  0  0  0  0  0  0  0
   -7.8233    1.0074    1.9269 H   0  0  0  0  0  0  0  0  0  0  0  0
   -6.8722    1.4160    3.3607 H   0  0  0  0  0  0  0  0  0  0  0  0
   -4.8319    0.5381    2.3492 H   0  0  0  0  0  0  0  0  0  0  0  0
   -6.0297   -0.7171    2.4606 H   0  0  0  0  0  0  0  0  0  0  0  0
   -6.1618    0.7938   -0.1345 H   0  0  0  0  0  0  0  0  0  0  0  0
   -3.6679   -0.8199    0.5671 H   0  0  0  0  0  0  0  0  0  0  0  0
   -4.1057   -0.3653   -1.0780 H   0  0  0  0  0  0  0  0  0  0  0  0
   -4.1418    2.0510   -0.3831 H   0  0  0  0  0  0  0  0  0  0  0  0
   -3.4191    1.6002    1.1507 H   0  0  0  0  0  0  0  0  0  0  0  0
   -2.2249    1.1319   -1.6196 H   0  0  0  0  0  0  0  0  0  0  0  0
   -2.4269    3.5069   -0.8437 H   0  0  0  0  0  0  0  0  0  0  0  0
   -1.3768    3.1462    0.5250 H   0  0  0  0  0  0  0  0  0  0  0  0
   -0.7792    3.0325   -1.1418 H   0  0  0  0  0  0  0  0  0  0  0  0
   -1.6167   -0.6395   -0.0534 H   0  0  0  0  0  0  0  0  0  0  0  0
   -0.5996    1.5339    1.8092 H   0  0  0  0  0  0  0  0  0  0  0  0
   -1.6787    0.1831    2.1534 H   0  0  0  0  0  0  0  0  0  0  0  0
    0.1325   -1.2141    2.4778 H   0  0  0  0  0  0  0  0  0  0  0  0
    1.1482    0.2156    2.3675 H   0  0  0  0  0  0  0  0  0  0  0  0
    0.4468   -1.8863    0.3232 H   0  0  0  0  0  0  0  0  0  0  0  0
    2.6935   -1.5334    1.4526 H   0  0  0  0  0  0  0  0  0  0  0  0
    2.4229   -1.9270   -1.5484 H   0  0  0  0  0  0  0  0  0  0  0  0
    2.5675   -3.1023   -0.2620 H   0  0  0  0  0  0  0  0  0  0  0  0
    4.7386   -3.0057   -1.3611 H   0  0  0  0  0  0  0  0  0  0  0  0
    7.1921   -1.7086    0.3755 H   0  0  0  0  0  0  0  0  0  0  0  0
    6.9342   -2.2146   -1.2709 H   0  0  0  0  0  0  0  0  0  0  0  0
    7.1019    0.0694   -2.1170 H   0  0  0  0  0  0  0  0  0  0  0  0
    9.0278   -1.0650   -1.6446 H   0  0  0  0  0  0  0  0  0  0  0  0
    7.5263    1.9777   -0.6431 H   0  0  0  0  0  0  0  0  0  0  0  0
    7.5265    0.9751    0.7818 H   0  0  0  0  0  0  0  0  0  0  0  0
    5.2179    1.5125   -1.1210 H   0  0  0  0  0  0  0  0  0  0  0  0
    5.3439    2.1344    0.5239 H   0  0  0  0  0  0  0  0  0  0  0  0
    4.6758   -1.0812    2.3374 H   0  0  0  0  0  0  0  0  0  0  0  0
    6.2475   -0.3538    2.0584 H   0  0  0  0  0  0  0  0  0  0  0  0
    4.8879    0.6649    2.5222 H   0  0  0  0  0  0  0  0  0  0  0  0
    2.9717    0.8635    1.2462 H   0  0  0  0  0  0  0  0  0  0  0  0
    3.1896    2.0230   -0.8968 H   0  0  0  0  0  0  0  0  0  0  0  0
    2.9150    0.5271   -1.7789 H   0  0  0  0  0  0  0  0  0  0  0  0
    0.9049    1.9090   -1.6088 H   0  0  0  0  0  0  0  0  0  0  0  0
    1.0525    2.0058    0.1405 H   0  0  0  0  0  0  0  0  0  0  0  0
    1.0783   -0.6874   -2.4980 H   0  0  0  0  0  0  0  0  0  0  0  0
   -0.3564   -1.5334   -1.9024 H   0  0  0  0  0  0  0  0  0  0  0  0
   -0.4878    0.0766   -2.6204 H   0  0  0  0  0  0  0  0  0  0  0  0
   -5.9263   -2.2025    0.4746 H   0  0  0  0  0  0  0  0  0  0  0  0
   -7.0163   -2.4396   -1.8158 H   0  0  0  0  0  0  0  0  0  0  0  0
   -5.3581   -1.8705   -1.8613 H   0  0  0  0  0  0  0  0  0  0  0  0
   -6.6970   -0.7204   -2.0932 H   0  0  0  0  0  0  0  0  0  0  0  0
   -8.0017   -1.3527    1.4998 H   0  0  0  0  0  0  0  0  0  0  0  0
   -8.3945   -2.2795    0.0623 H   0  0  0  0  0  0  0  0  0  0  0  0
   -8.4360   -0.5091   -0.0023 H   0  0  0  0  0  0  0  0  0  0  0  0
  1  2  1  0
  2  3  1  0
  3  4  1  0
  4  5  1  0
  5  6  1  0
  6  7  1  0
  6  8  1  0
  8  9  1  0
  9 10  1  0
 10 11  1  0
 11 12  1  0
 12 13  1  0
 13 14  1  0
 14 15  2  0
 15 16  1  0
 16 17  1  0
 17 18  1  0
 17 19  1  0
 19 20  1  0
 20 21  1  0
 21 22  1  0
 21 23  1  0
 23 24  1  0
 24 25  1  0
 25 26  1  0
 26 27  1  0
  3 28  1  0
 28 29  1  0
 28 30  1  0
 26  8  1  0
 26 11  1  0
 23 12  1  0
 21 15  1  0
  1 31  1  0
  1 32  1  0
  1 33  1  0
  2 34  1  0
  2 35  1  0
  3 36  1  0
  4 37  1  0
  4 38  1  0
  5 39  1  0
  5 40  1  0
  6 41  1  0
  7 42  1  0
  7 43  1  0
  7 44  1  0
  8 45  1  0
  9 46  1  0
  9 47  1  0
 10 48  1  0
 10 49  1  0
 11 50  1  0
 12 51  1  0
 13 52  1  0
 13 53  1  0
 14 54  1  0
 16 55  1  0
 16 56  1  0
 17 57  1  0
 18 58  1  0
 19 59  1  0
 19 60  1  0
 20 61  1  0
 20 62  1  0
 22 63  1  0
 22 64  1  0
 22 65  1  0
 23 66  1  0
 24 67  1  0
 24 68  1  0
 25 69  1  0
 25 70  1  0
 27 71  1  0
 27 72  1  0
 27 73  1  0
 28 74  1  0
 29 75  1  0
 29 76  1  0
 29 77  1  0
 30 78  1  0
 30 79  1  0
 30 80  1  0
M  END
$$$$
