
     RDKit          3D

 21 21  0  0  0  0  0  0  0  0999 V2000
    3.3607    0.7708   -0.0605 C   0  0  0  0  0  0  0  0  0  0  0  0
    2.0298    0.2951   -0.5610 C   0  0  0  0  0  0  0  0  0  0  0  0
    1.6734    0.3415   -1.7314 O   0  0  0  0  0  0  0  0  0  0  0  0
    1.3042   -0.2177    0.5086 O   0  0  0  0  0  0  0  0  0  0  0  0
    0.0101   -0.6017    0.1449 C   0  0  0  0  0  0  0  0  0  0  0  0
   -0.2013   -1.9656   -0.0817 C   0  0  0  0  0  0  0  0  0  0  0  0
   -1.4748   -2.4192   -0.4199 C   0  0  0  0  0  0  0  0  0  0  0  0
   -2.5324   -1.5157   -0.5188 C   0  0  0  0  0  0  0  0  0  0  0  0
   -2.3213   -0.1549   -0.2730 C   0  0  0  0  0  0  0  0  0  0  0  0
   -1.0452    0.3188    0.0698 C   0  0  0  0  0  0  0  0  0  0  0  0
   -0.8198    1.7592    0.3608 C   0  0  0  0  0  0  0  0  0  0  0  0
    0.2122    2.2787    0.7439 O   0  0  0  0  0  0  0  0  0  0  0  0
   -1.9233    2.5054    0.1598 O   0  0  0  0  0  0  0  0  0  0  0  0
    3.9364   -0.0758    0.3215 H   0  0  0  0  0  0  0  0  0  0  0  0
    3.2175    1.5231    0.7192 H   0  0  0  0  0  0  0  0  0  0  0  0
    3.9141    1.2294   -0.8850 H   0  0  0  0  0  0  0  0  0  0  0  0
    0.6231   -2.6688   -0.0035 H   0  0  0  0  0  0  0  0  0  0  0  0
   -1.6432   -3.4768   -0.6085 H   0  0  0  0  0  0  0  0  0  0  0  0
   -3.5257   -1.8697   -0.7855 H   0  0  0  0  0  0  0  0  0  0  0  0
   -3.1649    0.5275   -0.3495 H   0  0  0  0  0  0  0  0  0  0  0  0
   -1.6294    3.4167    0.3693 H   0  0  0  0  0  0  0  0  0  0  0  0
  1  2  1  0
  2  3  2  0
  2  4  1  0
  4  5  1  0
  5  6  2  0
  6  7  1  0
  7  8  2  0
  8  9  1  0
  9 10  2  0
 10 11  1  0
 11 12  2  0
 11 13  1  0
 10  5  1  0
  1 14  1  0
  1 15  1  0
  1 16  1  0
  6 17  1  0
  7 18  1  0
  8 19  1  0
  9 20  1  0
 13 21  1  0
M  END
$$$$
