
     RDKit          3D

 37 41  0  0  0  0  0  0  0  0999 V2000
    6.1373    2.1272   -0.7547 C   0  0  0  0  0  0  0  0  0  0  0  0
    4.7202    2.2446   -0.8319 O   0  0  0  0  0  0  0  0  0  0  0  0
    3.9840    1.1589   -0.4529 C   0  0  0  0  0  0  0  0  0  0  0  0
    4.4841   -0.0563    0.0036 C   0  0  0  0  0  0  0  0  0  0  0  0
    3.6053   -1.0848    0.3582 C   0  0  0  0  0  0  0  0  0  0  0  0
    2.2155   -0.9074    0.2596 C   0  0  0  0  0  0  0  0  0  0  0  0
    1.3135   -1.9097    0.6042 C   0  0  0  0  0  0  0  0  0  0  0  0
   -0.0693   -1.7113    0.4981 C   0  0  0  0  0  0  0  0  0  0  0  0
   -0.9248   -2.7519    0.8578 C   0  0  0  0  0  0  0  0  0  0  0  0
   -2.2944   -2.6031    0.7702 C   0  0  0  0  0  0  0  0  0  0  0  0
   -2.8197   -1.4042    0.3191 C   0  0  0  0  0  0  0  0  0  0  0  0
   -4.2162   -1.2742    0.2378 C   0  0  0  0  0  0  0  0  0  0  0  0
   -4.7366   -0.0844   -0.2099 C   0  0  0  0  0  0  0  0  0  0  0  0
   -3.9250    0.9546   -0.5701 C   0  0  0  0  0  0  0  0  0  0  0  0
   -2.5469    0.8710   -0.5061 C   0  0  0  0  0  0  0  0  0  0  0  0
   -1.9449   -0.3251   -0.0542 C   0  0  0  0  0  0  0  0  0  0  0  0
   -0.5730   -0.5052    0.0449 N   0  0  0  0  0  4  0  0  0  0  0  0
    0.3221    0.4711   -0.2903 C   0  0  0  0  0  0  0  0  0  0  0  0
    1.7070    0.3091   -0.1975 C   0  0  0  0  0  0  0  0  0  0  0  0
    2.6006    1.3354   -0.5510 C   0  0  0  0  0  0  0  0  0  0  0  0
   -4.6275    2.0418   -0.9847 O   0  0  0  0  0  0  0  0  0  0  0  0
   -5.9866    1.5653   -0.8434 C   0  0  0  0  0  0  0  0  0  0  0  0
   -6.0534    0.2097   -0.3493 O   0  0  0  0  0  0  0  0  0  0  0  0
    6.5035    1.3379   -1.4195 H   0  0  0  0  0  0  0  0  0  0  0  0
    6.4624    1.9582    0.2772 H   0  0  0  0  0  0  0  0  0  0  0  0
    6.5698    3.0745   -1.0905 H   0  0  0  0  0  0  0  0  0  0  0  0
    5.5511   -0.2379    0.0958 H   0  0  0  0  0  0  0  0  0  0  0  0
    4.0251   -2.0258    0.7125 H   0  0  0  0  0  0  0  0  0  0  0  0
    1.6974   -2.8656    0.9630 H   0  0  0  0  0  0  0  0  0  0  0  0
   -0.5274   -3.7023    1.2149 H   0  0  0  0  0  0  0  0  0  0  0  0
   -2.9399   -3.4334    1.0582 H   0  0  0  0  0  0  0  0  0  0  0  0
   -4.8917   -2.0799    0.5160 H   0  0  0  0  0  0  0  0  0  0  0  0
   -2.0017    1.7532   -0.8155 H   0  0  0  0  0  0  0  0  0  0  0  0
   -0.0580    1.4216   -0.6471 H   0  0  0  0  0  0  0  0  0  0  0  0
    2.2351    2.2969   -0.9114 H   0  0  0  0  0  0  0  0  0  0  0  0
   -6.4782    1.6094   -1.8219 H   0  0  0  0  0  0  0  0  0  0  0  0
   -6.5188    2.2221   -0.1460 H   0  0  0  0  0  0  0  0  0  0  0  0
  1  2  1  0
  2  3  1  0
  3  4  2  0
  4  5  1  0
  5  6  2  0
  6  7  1  0
  7  8  2  0
  8  9  1  0
  9 10  2  0
 10 11  1  0
 11 12  2  0
 12 13  1  0
 13 14  2  0
 14 15  1  0
 15 16  2  0
 16 17  1  0
 17 18  2  0
 18 19  1  0
 19 20  2  0
 14 21  1  0
 21 22  1  0
 22 23  1  0
 20  3  1  0
 19  6  1  0
 17  8  1  0
 16 11  1  0
 23 13  1  0
  1 24  1  0
  1 25  1  0
  1 26  1  0
  4 27  1  0
  5 28  1  0
  7 29  1  0
  9 30  1  0
 10 31  1  0
 12 32  1  0
 15 33  1  0
 18 34  1  0
 20 35  1  0
 22 36  1  0
 22 37  1  0
M  CHG  1  17   1
M  END
$$$$
