
     RDKit          3D

 54 42  0  0  0  0  0  0  0  0999 V2000
    0.0000    0.0000    0.0000 H   0  0  0  0  0 15  0  0  0  0  0  0
    0.0000    0.0000    0.0000 H   0  0  0  0  0 15  0  0  0  0  0  0
    0.0000    0.0000    0.0000 H   0  0  0  0  0 15  0  0  0  0  0  0
    0.7483   -1.1704   -0.4328 C   0  0  0  0  0  0  0  0  0  0  0  0
   -0.6458   -1.2646    0.0566 C   0  0  0  0  0  0  0  0  0  0  0  0
   -1.1309    0.0117    0.7392 C   0  0  0  0  0  0  0  0  0  0  0  0
   -0.8610    1.1025   -0.2846 C   0  0  0  0  0  0  0  0  0  0  0  0
    0.6408    1.3456   -0.2030 C   0  0  0  0  0  0  0  0  0  0  0  0
    1.4572    0.1130   -0.2115 C   0  0  0  0  0  0  0  0  0  0  0  0
    2.2227    0.0376    0.9511 O   0  0  0  0  0  0  0  0  0  0  0  0
    3.8574    0.1277    0.6958 P   0  0  0  0  0  5  0  0  0  0  0  0
    4.5163   -1.0461    1.4269 O   0  0  0  0  0  0  0  0  0  0  0  0
    4.3042   -0.0074   -0.9243 O   0  0  0  0  0  1  0  0  0  0  0  0
    4.5357    1.5295    1.3975 O   0  0  0  0  0  1  0  0  0  0  0  0
    1.0542    2.2833   -1.1361 O   0  0  0  0  0  0  0  0  0  0  0  0
    1.5717    3.7269   -0.5842 P   0  0  0  0  0  5  0  0  0  0  0  0
    0.9843    3.9650    0.8010 O   0  0  0  0  0  0  0  0  0  0  0  0
    3.2688    3.8030   -0.3600 O   0  0  0  0  0  1  0  0  0  0  0  0
    1.1583    5.0606   -1.5204 O   0  0  0  0  0  1  0  0  0  0  0  0
   -1.5243    2.2778    0.0151 O   0  0  0  0  0  0  0  0  0  0  0  0
   -2.5768    2.6664   -1.2447 P   0  0  0  0  0  5  0  0  0  0  0  0
   -2.1922    3.9704   -1.9077 O   0  0  0  0  0  0  0  0  0  0  0  0
   -2.6597    1.4725   -2.4063 O   0  0  0  0  0  1  0  0  0  0  0  0
   -4.1349    2.8292   -0.5652 O   0  0  0  0  0  1  0  0  0  0  0  0
   -2.4706   -0.1288    1.0087 O   0  0  0  0  0  0  0  0  0  0  0  0
   -2.6952    0.0427    2.6809 P   0  0  0  0  0  5  0  0  0  0  0  0
   -2.6391    1.4922    3.0951 O   0  0  0  0  0  0  0  0  0  0  0  0
   -4.1847   -0.6410    3.1547 O   0  0  0  0  0  1  0  0  0  0  0  0
   -1.4630   -0.7955    3.5207 O   0  0  0  0  0  1  0  0  0  0  0  0
   -0.8547   -2.2865    1.0060 O   0  0  0  0  0  0  0  0  0  0  0  0
   -2.0457   -3.3620    0.5050 P   0  0  0  0  0  5  0  0  0  0  0  0
   -3.1617   -3.3229    1.5224 O   0  0  0  0  0  0  0  0  0  0  0  0
   -2.7032   -2.9353   -0.9876 O   0  0  0  0  0  1  0  0  0  0  0  0
   -1.4133   -4.9236    0.5003 O   0  0  0  0  0  1  0  0  0  0  0  0
    0.7973   -1.6147   -1.7535 O   0  0  0  0  0  0  0  0  0  0  0  0
    1.5934   -3.0404   -1.9942 P   0  0  0  0  0  5  0  0  0  0  0  0
    2.3522   -3.1334   -3.2825 O   0  0  0  0  0  0  0  0  0  0  0  0
    0.4181   -4.2889   -2.0534 O   0  0  0  0  0  1  0  0  0  0  0  0
    2.6317   -3.4654   -0.7239 O   0  0  0  0  0  1  0  0  0  0  0  0
    0.0000    0.0000    0.0000 Na  0  0  0  0  0 15  0  0  0  0  0  0
    0.0000    0.0000    0.0000 Na  0  0  0  0  0 15  0  0  0  0  0  0
    0.0000    0.0000    0.0000 Na  0  0  0  0  0 15  0  0  0  0  0  0
    0.0000    0.0000    0.0000 Na  0  0  0  0  0 15  0  0  0  0  0  0
    0.0000    0.0000    0.0000 Na  0  0  0  0  0 15  0  0  0  0  0  0
    0.0000    0.0000    0.0000 Na  0  0  0  0  0 15  0  0  0  0  0  0
    0.0000    0.0000    0.0000 Na  0  0  0  0  0 15  0  0  0  0  0  0
    0.0000    0.0000    0.0000 Na  0  0  0  0  0 15  0  0  0  0  0  0
    0.0000    0.0000    0.0000 Na  0  0  0  0  0 15  0  0  0  0  0  0
    1.3105   -1.9781    0.1313 H   0  0  0  0  0  0  0  0  0  0  0  0
   -1.3329   -1.4415   -0.7835 H   0  0  0  0  0  0  0  0  0  0  0  0
   -0.5400    0.2021    1.6607 H   0  0  0  0  0  0  0  0  0  0  0  0
   -1.1781    0.7205   -1.2506 H   0  0  0  0  0  0  0  0  0  0  0  0
    0.7729    1.8446    0.7834 H   0  0  0  0  0  0  0  0  0  0  0  0
    2.2121    0.2217   -1.0425 H   0  0  0  0  0  0  0  0  0  0  0  0
  4  5  1  0
  5  6  1  0
  6  7  1  0
  7  8  1  0
  8  9  1  0
  9 10  1  0
 10 11  1  0
 11 12  2  0
 11 13  1  0
 11 14  1  0
  8 15  1  0
 15 16  1  0
 16 17  2  0
 16 18  1  0
 16 19  1  0
  7 20  1  0
 20 21  1  0
 21 22  2  0
 21 23  1  0
 21 24  1  0
  6 25  1  0
 25 26  1  0
 26 27  2  0
 26 28  1  0
 26 29  1  0
  5 30  1  0
 30 31  1  0
 31 32  2  0
 31 33  1  0
 31 34  1  0
  4 35  1  0
 35 36  1  0
 36 37  2  0
 36 38  1  0
 36 39  1  0
  9  4  1  0
  4 49  1  0
  5 50  1  0
  6 51  1  0
  7 52  1  0
  8 53  1  0
  9 54  1  0
M  CHG  8   1   1   2   1   3   1  13  -1  14  -1  18  -1  19  -1  23  -1
M  CHG  8  24  -1  28  -1  29  -1  33  -1  34  -1  38  -1  39  -1  40   1
M  CHG  8  41   1  42   1  43   1  44   1  45   1  46   1  47   1  48   1
M  END
$$$$
