
     RDKit          3D

 55 59  0  0  0  0  0  0  0  0999 V2000
    7.4991   -0.3161    1.8139 C   0  0  0  0  0  0  0  0  0  0  0  0
    8.0999   -0.8754    0.5579 C   0  0  0  0  0  0  0  0  0  0  0  0
    6.6118   -0.6202    0.6296 C   0  0  0  0  0  0  0  0  0  0  0  0
    6.0021    0.5083   -0.1411 C   0  0  0  0  0  0  0  0  0  0  0  0
    6.7043    1.4693   -0.4620 O   0  0  0  0  0  0  0  0  0  0  0  0
    4.6450    0.4366   -0.4444 N   0  0  0  0  0  0  0  0  0  0  0  0
    3.7627   -0.6544   -0.0213 C   0  0  0  0  0  0  0  0  0  0  0  0
    2.3106   -0.4858   -0.4884 C   0  0  0  0  0  0  0  0  0  0  0  0
    1.7983    0.8548   -0.1844 N   0  0  0  0  0  0  0  0  0  0  0  0
    2.7016    1.9780   -0.4526 C   0  0  0  0  0  0  0  0  0  0  0  0
    4.0099    1.5614   -1.1350 C   0  0  0  0  0  0  0  0  0  0  0  0
    0.5574    1.1485    0.3699 C   0  0  0  0  0  0  0  0  0  0  0  0
    0.1513    2.2886    0.5729 O   0  0  0  0  0  0  0  0  0  0  0  0
   -0.3466    0.0411    0.6880 C   0  0  0  0  0  0  0  0  0  0  0  0
   -0.3099   -0.5469    1.9472 C   0  0  0  0  0  0  0  0  0  0  0  0
   -1.1969   -1.5698    2.2645 C   0  0  0  0  0  0  0  0  0  0  0  0
   -2.1296   -1.9951    1.3148 C   0  0  0  0  0  0  0  0  0  0  0  0
   -2.1815   -1.4003    0.0393 C   0  0  0  0  0  0  0  0  0  0  0  0
   -1.2743   -0.3777   -0.2701 C   0  0  0  0  0  0  0  0  0  0  0  0
   -3.2125   -1.8528   -0.9698 C   0  0  0  0  0  0  0  0  0  0  0  0
   -4.6350   -1.5183   -0.5427 C   0  0  0  0  0  0  0  0  0  0  0  0
   -5.2951   -2.4485    0.0870 N   0  0  0  0  0  0  0  0  0  0  0  0
   -6.5586   -2.1719    0.4999 N   0  0  0  0  0  0  0  0  0  0  0  0
   -7.2315   -0.9859    0.3349 C   0  0  0  0  0  0  0  0  0  0  0  0
   -8.3751   -0.8129    0.7497 O   0  0  0  0  0  0  0  0  0  0  0  0
   -6.5032    0.0751   -0.3803 C   0  0  0  0  0  0  0  0  0  0  0  0
   -7.1133    1.3140   -0.6029 C   0  0  0  0  0  0  0  0  0  0  0  0
   -6.4229    2.3137   -1.2854 C   0  0  0  0  0  0  0  0  0  0  0  0
   -5.1275    2.0749   -1.7434 C   0  0  0  0  0  0  0  0  0  0  0  0
   -4.5198    0.8343   -1.5214 C   0  0  0  0  0  0  0  0  0  0  0  0
   -5.2079   -0.1745   -0.8314 C   0  0  0  0  0  0  0  0  0  0  0  0
    0.5903   -0.1596    2.8630 F   0  0  0  0  0  0  0  0  0  0  0  0
    7.4337   -0.9634    2.6823 H   0  0  0  0  0  0  0  0  0  0  0  0
    7.7060    0.7216    2.0512 H   0  0  0  0  0  0  0  0  0  0  0  0
    8.4421   -1.9024    0.5700 H   0  0  0  0  0  0  0  0  0  0  0  0
    8.7078   -0.2148   -0.0521 H   0  0  0  0  0  0  0  0  0  0  0  0
    6.0146   -1.5200    0.7183 H   0  0  0  0  0  0  0  0  0  0  0  0
    4.1617   -1.5956   -0.4094 H   0  0  0  0  0  0  0  0  0  0  0  0
    3.7950   -0.6927    1.0767 H   0  0  0  0  0  0  0  0  0  0  0  0
    2.2489   -0.5979   -1.5781 H   0  0  0  0  0  0  0  0  0  0  0  0
    1.6883   -1.2686   -0.0510 H   0  0  0  0  0  0  0  0  0  0  0  0
    2.9216    2.4492    0.5126 H   0  0  0  0  0  0  0  0  0  0  0  0
    2.1702    2.7201   -1.0612 H   0  0  0  0  0  0  0  0  0  0  0  0
    3.8068    1.2246   -2.1597 H   0  0  0  0  0  0  0  0  0  0  0  0
    4.6800    2.4225   -1.2095 H   0  0  0  0  0  0  0  0  0  0  0  0
   -1.1662   -2.0256    3.2489 H   0  0  0  0  0  0  0  0  0  0  0  0
   -2.8284   -2.7902    1.5758 H   0  0  0  0  0  0  0  0  0  0  0  0
   -1.2850    0.1075   -1.2437 H   0  0  0  0  0  0  0  0  0  0  0  0
   -3.1318   -2.9423   -1.0853 H   0  0  0  0  0  0  0  0  0  0  0  0
   -3.0018   -1.4421   -1.9637 H   0  0  0  0  0  0  0  0  0  0  0  0
   -7.0454   -2.9130    0.9942 H   0  0  0  0  0  0  0  0  0  0  0  0
   -8.1260    1.4995   -0.2453 H   0  0  0  0  0  0  0  0  0  0  0  0
   -6.8937    3.2789   -1.4572 H   0  0  0  0  0  0  0  0  0  0  0  0
   -4.5876    2.8565   -2.2718 H   0  0  0  0  0  0  0  0  0  0  0  0
   -3.5138    0.6940   -1.8978 H   0  0  0  0  0  0  0  0  0  0  0  0
  1  2  1  0
  2  3  1  0
  3  4  1  0
  4  5  2  0
  4  6  1  0
  6  7  1  0
  7  8  1  0
  8  9  1  0
  9 10  1  0
 10 11  1  0
  9 12  1  0
 12 13  2  0
 12 14  1  0
 14 15  2  0
 15 16  1  0
 16 17  2  0
 17 18  1  0
 18 19  2  0
 18 20  1  0
 20 21  1  0
 21 22  2  0
 22 23  1  0
 23 24  1  0
 24 25  2  0
 24 26  1  0
 26 27  2  0
 27 28  1  0
 28 29  2  0
 29 30  1  0
 30 31  2  0
 15 32  1  0
  3  1  1  0
 11  6  1  0
 19 14  1  0
 31 21  1  0
 31 26  1  0
  1 33  1  0
  1 34  1  0
  2 35  1  0
  2 36  1  0
  3 37  1  0
  7 38  1  0
  7 39  1  0
  8 40  1  0
  8 41  1  0
 10 42  1  0
 10 43  1  0
 11 44  1  0
 11 45  1  0
 16 46  1  0
 17 47  1  0
 19 48  1  0
 20 49  1  0
 20 50  1  0
 23 51  1  0
 27 52  1  0
 28 53  1  0
 29 54  1  0
 30 55  1  0
M  END
$$$$
