
     RDKit          3D

 43 44  0  0  0  0  0  0  0  0999 V2000
   -0.6836    3.1473   -0.5371 C   0  0  0  0  0  0  0  0  0  0  0  0
   -0.6784    1.8067   -1.2776 C   0  0  0  0  0  0  0  0  0  0  0  0
   -0.2792    2.1084   -2.6347 O   0  0  0  0  0  0  0  0  0  0  0  0
   -2.0556    1.1437   -1.3199 C   0  0  0  0  0  0  0  0  0  0  0  0
   -2.8147    0.9879    0.2859 S   0  0  0  0  0  6  0  0  0  0  0  0
   -3.7574    2.0829    0.4266 O   0  0  0  0  0  0  0  0  0  0  0  0
   -1.8077    0.7672    1.3040 O   0  0  0  0  0  0  0  0  0  0  0  0
   -3.7605   -0.5133    0.1541 C   0  0  0  0  0  0  0  0  0  0  0  0
   -5.1337   -0.4529   -0.1064 C   0  0  0  0  0  0  0  0  0  0  0  0
   -5.8633   -1.6389   -0.1952 C   0  0  0  0  0  0  0  0  0  0  0  0
   -5.2187   -2.8600   -0.0145 C   0  0  0  0  0  0  0  0  0  0  0  0
   -5.9243   -3.9951   -0.1010 F   0  0  0  0  0  0  0  0  0  0  0  0
   -3.8551   -2.9214    0.2588 C   0  0  0  0  0  0  0  0  0  0  0  0
   -3.1169   -1.7414    0.3494 C   0  0  0  0  0  0  0  0  0  0  0  0
    0.3844    0.8126   -0.7355 C   0  0  0  0  0  0  0  0  0  0  0  0
    0.1064   -0.3702   -0.5486 O   0  0  0  0  0  0  0  0  0  0  0  0
    1.6495    1.3651   -0.6293 N   0  0  0  0  0  0  0  0  0  0  0  0
    2.8108    0.7556   -0.1180 C   0  0  0  0  0  0  0  0  0  0  0  0
    4.0127    1.4564   -0.2526 C   0  0  0  0  0  0  0  0  0  0  0  0
    5.2076    0.9203    0.2352 C   0  0  0  0  0  0  0  0  0  0  0  0
    5.2183   -0.3268    0.8719 C   0  0  0  0  0  0  0  0  0  0  0  0
    6.4700   -0.8400    1.3563 C   0  0  0  0  0  0  0  0  0  0  0  0
    7.4866   -1.2444    1.7405 N   0  0  0  0  0  0  0  0  0  0  0  0
    4.0176   -1.0406    1.0245 C   0  0  0  0  0  0  0  0  0  0  0  0
    2.8203   -0.4838    0.5273 C   0  0  0  0  0  0  0  0  0  0  0  0
    3.9980   -2.3832    1.7145 C   0  0  0  0  0  0  0  0  0  0  0  0
    4.4323   -2.3104    3.0012 F   0  0  0  0  0  0  0  0  0  0  0  0
    4.7913   -3.2960    1.0918 F   0  0  0  0  0  0  0  0  0  0  0  0
    2.7614   -2.9503    1.7733 F   0  0  0  0  0  0  0  0  0  0  0  0
    0.2083    3.7399   -0.7702 H   0  0  0  0  0  0  0  0  0  0  0  0
   -0.7226    3.0276    0.5494 H   0  0  0  0  0  0  0  0  0  0  0  0
   -1.5368    3.7588   -0.8523 H   0  0  0  0  0  0  0  0  0  0  0  0
   -0.2648    1.2714   -3.1363 H   0  0  0  0  0  0  0  0  0  0  0  0
   -2.7465    1.7112   -1.9542 H   0  0  0  0  0  0  0  0  0  0  0  0
   -1.9882    0.1458   -1.7662 H   0  0  0  0  0  0  0  0  0  0  0  0
   -5.6410    0.5015   -0.2317 H   0  0  0  0  0  0  0  0  0  0  0  0
   -6.9302   -1.6214   -0.3957 H   0  0  0  0  0  0  0  0  0  0  0  0
   -3.3790   -3.8860    0.4070 H   0  0  0  0  0  0  0  0  0  0  0  0
   -2.0526   -1.7866    0.5761 H   0  0  0  0  0  0  0  0  0  0  0  0
    1.7674    2.2787   -1.0546 H   0  0  0  0  0  0  0  0  0  0  0  0
    4.0401    2.4284   -0.7409 H   0  0  0  0  0  0  0  0  0  0  0  0
    6.1312    1.4859    0.1148 H   0  0  0  0  0  0  0  0  0  0  0  0
    1.8965   -1.0405    0.6722 H   0  0  0  0  0  0  0  0  0  0  0  0
  1  2  1  0
  2  3  1  0
  2  4  1  0
  4  5  1  0
  5  6  2  0
  5  7  2  0
  5  8  1  0
  8  9  2  0
  9 10  1  0
 10 11  2  0
 11 12  1  0
 11 13  1  0
 13 14  2  0
  2 15  1  0
 15 16  2  0
 15 17  1  0
 17 18  1  0
 18 19  2  0
 19 20  1  0
 20 21  2  0
 21 22  1  0
 22 23  3  0
 21 24  1  0
 24 25  2  0
 24 26  1  0
 26 27  1  0
 26 28  1  0
 26 29  1  0
 14  8  1  0
 25 18  1  0
  1 30  1  0
  1 31  1  0
  1 32  1  0
  3 33  1  0
  4 34  1  0
  4 35  1  0
  9 36  1  0
 10 37  1  0
 13 38  1  0
 14 39  1  0
 17 40  1  0
 19 41  1  0
 20 42  1  0
 25 43  1  0
M  END
$$$$
