
     RDKit          3D

 19 18  0  0  0  0  0  0  0  0999 V2000
   -0.6535    1.3978    0.1410 C   0  0  0  0  0  0  0  0  0  0  0  0
   -0.3523   -0.0921    0.1135 N   0  0  0  0  0  4  0  0  0  0  0  0
   -0.5835   -0.6319   -1.2889 C   0  0  0  0  0  0  0  0  0  0  0  0
   -1.1784   -0.8328    1.1245 C   0  0  0  0  0  0  0  0  0  0  0  0
    1.1817   -0.2790    0.4539 C   0  0  0  0  0  0  0  0  0  0  0  0
    2.1936    0.4232   -0.4933 C   0  0  0  0  0  0  0  0  0  0  0  0
    2.4551    1.6157   -0.1766 O   0  0  0  0  0  0  0  0  0  0  0  0
    2.5199   -0.2628   -1.5001 O   0  0  0  0  0  1  0  0  0  0  0  0
   -1.7295    1.5263   -0.0123 H   0  0  0  0  0  0  0  0  0  0  0  0
   -0.3630    1.7943    1.1182 H   0  0  0  0  0  0  0  0  0  0  0  0
   -0.1082    1.8968   -0.6640 H   0  0  0  0  0  0  0  0  0  0  0  0
   -0.2434   -1.6709   -1.3231 H   0  0  0  0  0  0  0  0  0  0  0  0
   -0.0422   -0.0167   -2.0121 H   0  0  0  0  0  0  0  0  0  0  0  0
   -1.6568   -0.5804   -1.4964 H   0  0  0  0  0  0  0  0  0  0  0  0
   -0.9660   -0.4261    2.1176 H   0  0  0  0  0  0  0  0  0  0  0  0
   -0.9153   -1.8940    1.0835 H   0  0  0  0  0  0  0  0  0  0  0  0
   -2.2358   -0.6963    0.8789 H   0  0  0  0  0  0  0  0  0  0  0  0
    1.3138    0.0892    1.4785 H   0  0  0  0  0  0  0  0  0  0  0  0
    1.3638   -1.3605    0.4571 H   0  0  0  0  0  0  0  0  0  0  0  0
  1  2  1  0
  2  3  1  0
  2  4  1  0
  2  5  1  0
  5  6  1  0
  6  7  2  0
  6  8  1  0
  1  9  1  0
  1 10  1  0
  1 11  1  0
  3 12  1  0
  3 13  1  0
  3 14  1  0
  4 15  1  0
  4 16  1  0
  4 17  1  0
  5 18  1  0
  5 19  1  0
M  CHG  2   2   1   8  -1
M  END
$$$$
