
     RDKit          3D

 49 50  0  0  0  0  0  0  0  0999 V2000
    5.4060    2.1737    0.4684 C   0  0  0  0  0  0  0  0  0  0  0  0
    4.3030    1.5797   -0.3931 C   0  0  0  0  0  0  0  0  0  0  0  0
    3.5165    0.5079    0.3635 C   0  0  0  0  0  0  0  0  0  0  0  0
    2.4021   -0.0824   -0.5114 C   0  0  0  0  0  0  0  0  0  0  0  0
    1.6473   -1.0994    0.2463 N   0  0  0  0  0  0  0  0  0  0  0  0
    2.3117   -2.4168    0.1699 C   0  0  0  0  0  0  0  0  0  0  0  0
    1.6788   -3.4118   -0.8186 C   0  0  0  0  0  0  0  0  0  0  0  0
    1.0739   -2.7163   -2.0334 C   0  0  0  0  0  0  0  0  0  0  0  0
    0.0623   -1.6405   -1.6208 C   0  0  0  0  0  0  0  0  0  0  0  0
    0.2225   -1.2181   -0.1508 C   0  0  0  0  0  0  0  0  0  0  0  0
   -0.6327    0.0373    0.1972 C   0  0  0  0  0  0  0  0  0  0  0  0
   -0.1630    1.1546    0.3882 O   0  0  0  0  0  0  0  0  0  0  0  0
   -1.9959   -0.2599    0.2182 N   0  0  0  0  0  0  0  0  0  0  0  0
   -3.0441    0.6443    0.5241 C   0  0  0  0  0  0  0  0  0  0  0  0
   -4.2317    0.5460   -0.2452 C   0  0  0  0  0  0  0  0  0  0  0  0
   -5.2976    1.4272    0.0017 C   0  0  0  0  0  0  0  0  0  0  0  0
   -5.2050    2.3908    0.9976 C   0  0  0  0  0  0  0  0  0  0  0  0
   -4.0588    2.4621    1.7810 C   0  0  0  0  0  0  0  0  0  0  0  0
   -2.9821    1.5764    1.5827 C   0  0  0  0  0  0  0  0  0  0  0  0
   -1.8515    1.6688    2.5732 C   0  0  0  0  0  0  0  0  0  0  0  0
   -4.3910   -0.4540   -1.3613 C   0  0  0  0  0  0  0  0  0  0  0  0
    6.1185    1.4032    0.7799 H   0  0  0  0  0  0  0  0  0  0  0  0
    5.9548    2.9372   -0.0917 H   0  0  0  0  0  0  0  0  0  0  0  0
    4.9923    2.6430    1.3667 H   0  0  0  0  0  0  0  0  0  0  0  0
    4.7465    1.1468   -1.2973 H   0  0  0  0  0  0  0  0  0  0  0  0
    3.6274    2.3811   -0.7141 H   0  0  0  0  0  0  0  0  0  0  0  0
    3.0778    0.9488    1.2677 H   0  0  0  0  0  0  0  0  0  0  0  0
    4.2055   -0.2796    0.6913 H   0  0  0  0  0  0  0  0  0  0  0  0
    2.8293   -0.4999   -1.4316 H   0  0  0  0  0  0  0  0  0  0  0  0
    1.7651    0.7441   -0.8392 H   0  0  0  0  0  0  0  0  0  0  0  0
    3.3796   -2.3150   -0.0605 H   0  0  0  0  0  0  0  0  0  0  0  0
    2.2792   -2.8679    1.1697 H   0  0  0  0  0  0  0  0  0  0  0  0
    2.4328   -4.1391   -1.1409 H   0  0  0  0  0  0  0  0  0  0  0  0
    0.8930   -3.9830   -0.3078 H   0  0  0  0  0  0  0  0  0  0  0  0
    0.5906   -3.4499   -2.6887 H   0  0  0  0  0  0  0  0  0  0  0  0
    1.8748   -2.2582   -2.6259 H   0  0  0  0  0  0  0  0  0  0  0  0
    0.1503   -0.7772   -2.2920 H   0  0  0  0  0  0  0  0  0  0  0  0
   -0.9490   -2.0368   -1.7746 H   0  0  0  0  0  0  0  0  0  0  0  0
   -0.2072   -2.0077    0.4853 H   0  0  0  0  0  0  0  0  0  0  0  0
   -2.2619   -1.0724   -0.3176 H   0  0  0  0  0  0  0  0  0  0  0  0
   -6.2069    1.3755   -0.5933 H   0  0  0  0  0  0  0  0  0  0  0  0
   -6.0290    3.0767    1.1743 H   0  0  0  0  0  0  0  0  0  0  0  0
   -4.0122    3.2045    2.5758 H   0  0  0  0  0  0  0  0  0  0  0  0
   -1.1329    2.4341    2.2672 H   0  0  0  0  0  0  0  0  0  0  0  0
   -1.3482    0.7075    2.7099 H   0  0  0  0  0  0  0  0  0  0  0  0
   -2.2336    1.9448    3.5634 H   0  0  0  0  0  0  0  0  0  0  0  0
   -4.3715   -1.4732   -0.9624 H   0  0  0  0  0  0  0  0  0  0  0  0
   -5.3430   -0.3259   -1.8877 H   0  0  0  0  0  0  0  0  0  0  0  0
   -3.5929   -0.3313   -2.1009 H   0  0  0  0  0  0  0  0  0  0  0  0
  1  2  1  0
  2  3  1  0
  3  4  1  0
  4  5  1  0
  5  6  1  0
  6  7  1  0
  7  8  1  0
  8  9  1  0
  9 10  1  0
 10 11  1  0
 11 12  2  0
 11 13  1  0
 13 14  1  0
 14 15  2  0
 15 16  1  0
 16 17  2  0
 17 18  1  0
 18 19  2  0
 19 20  1  0
 15 21  1  0
 10  5  1  0
 19 14  1  0
  1 22  1  0
  1 23  1  0
  1 24  1  0
  2 25  1  0
  2 26  1  0
  3 27  1  0
  3 28  1  0
  4 29  1  0
  4 30  1  0
  6 31  1  0
  6 32  1  0
  7 33  1  0
  7 34  1  0
  8 35  1  0
  8 36  1  0
  9 37  1  0
  9 38  1  0
 10 39  1  0
 13 40  1  0
 16 41  1  0
 17 42  1  0
 18 43  1  0
 20 44  1  0
 20 45  1  0
 20 46  1  0
 21 47  1  0
 21 48  1  0
 21 49  1  0
M  END
$$$$
