
     RDKit          3D

 52 55  0  0  0  0  0  0  0  0999 V2000
   -9.9683    0.7346    1.1189 C   0  0  0  0  0  0  0  0  0  0  0  0
   -8.4908    0.5054    0.9751 C   0  0  0  0  0  0  0  0  0  0  0  0
   -7.5935    0.7465    2.0236 C   0  0  0  0  0  0  0  0  0  0  0  0
   -6.2217    0.5215    1.8586 C   0  0  0  0  0  0  0  0  0  0  0  0
   -5.7179    0.0475    0.6430 C   0  0  0  0  0  0  0  0  0  0  0  0
   -6.6059   -0.1880   -0.4059 C   0  0  0  0  0  0  0  0  0  0  0  0
   -7.9780    0.0362   -0.2414 C   0  0  0  0  0  0  0  0  0  0  0  0
   -4.3249   -0.1456    0.5500 N   0  0  0  0  0  0  0  0  0  0  0  0
   -3.6242   -0.7264   -0.4839 C   0  0  0  0  0  0  0  0  0  0  0  0
   -4.0882   -1.2579   -1.4829 O   0  0  0  0  0  0  0  0  0  0  0  0
   -2.2658   -0.6533   -0.2491 N   0  0  0  0  0  0  0  0  0  0  0  0
   -1.3563   -1.1626   -1.2508 C   0  0  0  0  0  0  0  0  0  0  0  0
    0.0707   -1.0624   -0.7733 C   0  0  0  0  0  0  0  0  0  0  0  0
    0.9319   -0.0847   -1.3051 C   0  0  0  0  0  0  0  0  0  0  0  0
    2.2300   -0.0167   -0.8280 C   0  0  0  0  0  0  0  0  0  0  0  0
    2.6641   -0.8983    0.1589 C   0  0  0  0  0  0  0  0  0  0  0  0
    1.8488   -1.8699    0.7045 C   0  0  0  0  0  0  0  0  0  0  0  0
    0.5375   -1.9452    0.2310 C   0  0  0  0  0  0  0  0  0  0  0  0
    4.0677   -0.5942    0.4580 C   0  0  0  0  0  0  0  0  0  0  0  0
    4.7661   -1.2328    1.2205 O   0  0  0  0  0  0  0  0  0  0  0  0
    4.4075    0.5184   -0.2984 N   0  0  0  0  0  0  0  0  0  0  0  0
    3.3483    0.8859   -1.2283 C   0  0  0  0  0  0  0  0  0  0  0  0
    5.7714    1.0074   -0.4723 C   0  0  0  0  0  0  0  0  0  0  0  0
    6.5217    1.2222    0.8419 C   0  0  0  0  0  0  0  0  0  0  0  0
    7.9017    1.7886    0.5470 C   0  0  0  0  0  0  0  0  0  0  0  0
    8.6765    0.8870   -0.3855 C   0  0  0  0  0  0  0  0  0  0  0  0
    9.9030    0.9014   -0.4396 O   0  0  0  0  0  0  0  0  0  0  0  0
    7.9406    0.1045   -1.2393 N   0  0  0  0  0  0  0  0  0  0  0  0
    6.5751    0.0927   -1.4099 C   0  0  0  0  0  0  0  0  0  0  0  0
    6.0709   -0.5397   -2.3372 O   0  0  0  0  0  0  0  0  0  0  0  0
   -8.1346    1.3308    3.5580 Cl  0  0  0  0  0  0  0  0  0  0  0  0
  -10.5036    0.4918    0.1946 H   0  0  0  0  0  0  0  0  0  0  0  0
  -10.3780    0.0998    1.9110 H   0  0  0  0  0  0  0  0  0  0  0  0
  -10.1713    1.7856    1.3483 H   0  0  0  0  0  0  0  0  0  0  0  0
   -5.5521    0.7186    2.6915 H   0  0  0  0  0  0  0  0  0  0  0  0
   -6.2633   -0.5455   -1.3728 H   0  0  0  0  0  0  0  0  0  0  0  0
   -8.6423   -0.1618   -1.0809 H   0  0  0  0  0  0  0  0  0  0  0  0
   -3.7862    0.0245    1.3864 H   0  0  0  0  0  0  0  0  0  0  0  0
   -1.9607    0.1762    0.2369 H   0  0  0  0  0  0  0  0  0  0  0  0
   -1.5034   -0.5879   -2.1731 H   0  0  0  0  0  0  0  0  0  0  0  0
   -1.6105   -2.2054   -1.4758 H   0  0  0  0  0  0  0  0  0  0  0  0
    0.5919    0.5974   -2.0797 H   0  0  0  0  0  0  0  0  0  0  0  0
    2.2191   -2.5456    1.4682 H   0  0  0  0  0  0  0  0  0  0  0  0
   -0.1330   -2.6993    0.6416 H   0  0  0  0  0  0  0  0  0  0  0  0
    3.6682    0.6859   -2.2547 H   0  0  0  0  0  0  0  0  0  0  0  0
    3.1006    1.9414   -1.0870 H   0  0  0  0  0  0  0  0  0  0  0  0
    5.6901    1.9775   -0.9813 H   0  0  0  0  0  0  0  0  0  0  0  0
    6.6433    0.2815    1.3900 H   0  0  0  0  0  0  0  0  0  0  0  0
    5.9651    1.9070    1.4919 H   0  0  0  0  0  0  0  0  0  0  0  0
    7.8288    2.7790    0.0845 H   0  0  0  0  0  0  0  0  0  0  0  0
    8.4636    1.8846    1.4822 H   0  0  0  0  0  0  0  0  0  0  0  0
    8.4701   -0.4711   -1.8797 H   0  0  0  0  0  0  0  0  0  0  0  0
  1  2  1  0
  2  3  2  0
  3  4  1  0
  4  5  2  0
  5  6  1  0
  6  7  2  0
  5  8  1  0
  8  9  1  0
  9 10  2  0
  9 11  1  0
 11 12  1  0
 12 13  1  0
 13 14  2  0
 14 15  1  0
 15 16  2  0
 16 17  1  0
 17 18  2  0
 16 19  1  0
 19 20  2  0
 19 21  1  0
 21 22  1  0
 21 23  1  0
 23 24  1  0
 24 25  1  0
 25 26  1  0
 26 27  2  0
 26 28  1  0
 28 29  1  0
 29 30  2  0
  3 31  1  0
  7  2  1  0
 18 13  1  0
 22 15  1  0
 29 23  1  0
  1 32  1  0
  1 33  1  0
  1 34  1  0
  4 35  1  0
  6 36  1  0
  7 37  1  0
  8 38  1  0
 11 39  1  0
 12 40  1  0
 12 41  1  0
 14 42  1  0
 17 43  1  0
 18 44  1  0
 22 45  1  0
 22 46  1  0
 23 47  1  0
 24 48  1  0
 24 49  1  0
 25 50  1  0
 25 51  1  0
 28 52  1  0
M  END
$$$$
