
     RDKit          3D

 66 70  0  0  0  0  0  0  0  0999 V2000
   -5.8971    3.4254   -0.5724 C   0  0  0  0  0  0  0  0  0  0  0  0
   -4.6244    2.6330   -0.4228 C   0  0  0  0  0  0  0  0  0  0  0  0
   -4.6173    1.3265    0.0932 C   0  0  0  0  0  0  0  0  0  0  0  0
   -3.4144    0.6126    0.1792 C   0  0  0  0  0  0  0  0  0  0  0  0
   -2.2031    1.1792   -0.2422 C   0  0  0  0  0  0  0  0  0  0  0  0
   -2.2118    2.4845   -0.7484 C   0  0  0  0  0  0  0  0  0  0  0  0
   -3.4132    3.1972   -0.8498 C   0  0  0  0  0  0  0  0  0  0  0  0
   -0.9568    0.3477   -0.0978 C   0  0  0  0  0  0  0  0  0  0  0  0
   -1.0306   -0.6884    0.5608 O   0  0  0  0  0  0  0  0  0  0  0  0
    0.1806    0.8095   -0.7366 N   0  0  0  0  0  0  0  0  0  0  0  0
    1.4668    0.2301   -0.7376 C   0  0  0  0  0  0  0  0  0  0  0  0
    1.8028   -0.9485   -0.0689 C   0  0  0  0  0  0  0  0  0  0  0  0
    3.1067   -1.4889   -0.1328 C   0  0  0  0  0  0  0  0  0  0  0  0
    4.0973   -0.8124   -0.8796 C   0  0  0  0  0  0  0  0  0  0  0  0
    3.7533    0.3818   -1.5347 C   0  0  0  0  0  0  0  0  0  0  0  0
    2.4565    0.8914   -1.4644 C   0  0  0  0  0  0  0  0  0  0  0  0
    5.5213   -1.3263   -1.0052 C   0  0  0  0  0  0  0  0  0  0  0  0
    6.2797   -1.2483    0.2469 N   0  0  0  0  0  0  0  0  0  0  0  0
    6.4894    0.1503    0.6867 C   0  0  0  0  0  0  0  0  0  0  0  0
    7.9087    0.4586    1.2234 C   0  0  0  0  0  0  0  0  0  0  0  0
    8.9891    0.1385    0.2719 N   0  0  0  0  0  0  0  0  0  0  0  0
    8.7039   -1.1048   -0.4721 C   0  0  0  0  0  0  0  0  0  0  0  0
    7.5678   -1.9620    0.1354 C   0  0  0  0  0  0  0  0  0  0  0  0
    9.2656    1.2433   -0.6416 C   0  0  0  0  0  0  0  0  0  0  0  0
    3.3950   -2.7879    0.6012 C   0  0  0  0  0  0  0  0  0  0  0  0
    4.1713   -2.6324    1.7086 F   0  0  0  0  0  0  0  0  0  0  0  0
    4.0161   -3.7159   -0.1856 F   0  0  0  0  0  0  0  0  0  0  0  0
    2.2604   -3.4121    1.0452 F   0  0  0  0  0  0  0  0  0  0  0  0
   -5.8141    0.6958    0.5564 C   0  0  0  0  0  0  0  0  0  0  0  0
   -6.8204    0.1828    0.9649 C   0  0  0  0  0  0  0  0  0  0  0  0
   -8.0224   -0.3944    1.4485 C   0  0  0  0  0  0  0  0  0  0  0  0
   -8.2260   -1.1254    2.5991 C   0  0  0  0  0  0  0  0  0  0  0  0
   -9.5438   -1.4908    2.7315 N   0  0  0  0  0  0  0  0  0  0  0  0
  -10.1432   -0.9881    1.6717 C   0  0  0  0  0  0  0  0  0  0  0  0
   -9.2528   -0.3127    0.8474 N   0  0  0  0  0  0  0  0  0  0  0  0
   -9.5395    0.3219   -0.3328 N   0  0  0  0  0  0  0  0  0  0  0  0
  -10.7917    0.2381   -0.6543 C   0  0  0  0  0  0  0  0  0  0  0  0
  -11.8567   -0.4444    0.1207 C   0  0  0  0  0  0  0  0  0  0  0  0
  -11.4957   -1.0321    1.2677 C   0  0  0  0  0  0  0  0  0  0  0  0
   -6.5620    3.2861    0.2871 H   0  0  0  0  0  0  0  0  0  0  0  0
   -6.4200    3.1256   -1.4869 H   0  0  0  0  0  0  0  0  0  0  0  0
   -5.6867    4.5001   -0.6299 H   0  0  0  0  0  0  0  0  0  0  0  0
   -3.4245   -0.3987    0.5864 H   0  0  0  0  0  0  0  0  0  0  0  0
   -1.3056    2.9939   -1.0560 H   0  0  0  0  0  0  0  0  0  0  0  0
   -3.3954    4.2079   -1.2546 H   0  0  0  0  0  0  0  0  0  0  0  0
    0.0934    1.6389   -1.3051 H   0  0  0  0  0  0  0  0  0  0  0  0
    1.0540   -1.4904    0.5048 H   0  0  0  0  0  0  0  0  0  0  0  0
    4.4983    0.9260   -2.1074 H   0  0  0  0  0  0  0  0  0  0  0  0
    2.2385    1.8152   -1.9917 H   0  0  0  0  0  0  0  0  0  0  0  0
    6.0446   -0.7886   -1.8070 H   0  0  0  0  0  0  0  0  0  0  0  0
    5.4625   -2.3627   -1.3593 H   0  0  0  0  0  0  0  0  0  0  0  0
    5.7577    0.3772    1.4714 H   0  0  0  0  0  0  0  0  0  0  0  0
    6.3006    0.8555   -0.1316 H   0  0  0  0  0  0  0  0  0  0  0  0
    8.0773   -0.1255    2.1370 H   0  0  0  0  0  0  0  0  0  0  0  0
    7.9622    1.5071    1.5417 H   0  0  0  0  0  0  0  0  0  0  0  0
    9.6212   -1.7038   -0.5009 H   0  0  0  0  0  0  0  0  0  0  0  0
    8.4409   -0.8887   -1.5159 H   0  0  0  0  0  0  0  0  0  0  0  0
    7.4564   -2.8889   -0.4413 H   0  0  0  0  0  0  0  0  0  0  0  0
    7.8661   -2.2878    1.1397 H   0  0  0  0  0  0  0  0  0  0  0  0
   10.0972    0.9895   -1.3108 H   0  0  0  0  0  0  0  0  0  0  0  0
    8.3970    1.5042   -1.2596 H   0  0  0  0  0  0  0  0  0  0  0  0
    9.5729    2.1376   -0.0856 H   0  0  0  0  0  0  0  0  0  0  0  0
   -7.4905   -1.3996    3.3442 H   0  0  0  0  0  0  0  0  0  0  0  0
  -11.1300    0.7171   -1.5891 H   0  0  0  0  0  0  0  0  0  0  0  0
  -12.8704   -0.4378   -0.2589 H   0  0  0  0  0  0  0  0  0  0  0  0
  -12.2128   -1.5441    1.8983 H   0  0  0  0  0  0  0  0  0  0  0  0
  1  2  1  0
  2  3  2  0
  3  4  1  0
  4  5  2  0
  5  6  1  0
  6  7  2  0
  5  8  1  0
  8  9  2  0
  8 10  1  0
 10 11  1  0
 11 12  2  0
 12 13  1  0
 13 14  2  0
 14 15  1  0
 15 16  2  0
 14 17  1  0
 17 18  1  0
 18 19  1  0
 19 20  1  0
 20 21  1  0
 21 22  1  0
 22 23  1  0
 21 24  1  0
 13 25  1  0
 25 26  1  0
 25 27  1  0
 25 28  1  0
  3 29  1  0
 29 30  3  0
 30 31  1  0
 31 32  2  0
 32 33  1  0
 33 34  2  0
 34 35  1  0
 35 36  1  0
 36 37  2  0
 37 38  1  0
 38 39  2  0
  7  2  1  0
 16 11  1  0
 23 18  1  0
 35 31  1  0
 39 34  1  0
  1 40  1  0
  1 41  1  0
  1 42  1  0
  4 43  1  0
  6 44  1  0
  7 45  1  0
 10 46  1  0
 12 47  1  0
 15 48  1  0
 16 49  1  0
 17 50  1  0
 17 51  1  0
 19 52  1  0
 19 53  1  0
 20 54  1  0
 20 55  1  0
 22 56  1  0
 22 57  1  0
 23 58  1  0
 23 59  1  0
 24 60  1  0
 24 61  1  0
 24 62  1  0
 32 63  1  0
 37 64  1  0
 38 65  1  0
 39 66  1  0
M  END
$$$$
