
     RDKit          3D

 62 66  0  0  0  0  0  0  0  0999 V2000
   -1.8465   -3.5859    0.1169 C   0  0  0  0  0  0  0  0  0  0  0  0
   -0.5467   -2.8365    0.3804 C   0  0  2  0  0  0  0  0  0  0  0  0
    0.2499   -3.5727    1.4957 C   0  0  0  0  0  0  0  0  0  0  0  0
    1.4178   -2.7178    2.0130 C   0  0  2  0  0  0  0  0  0  0  0  0
    1.0768   -1.2370    1.8427 C   0  0  2  0  0  0  0  0  0  0  0  0
   -0.3938   -0.9528    2.2370 C   0  0  0  0  0  0  0  0  0  0  0  0
   -0.7537   -1.3368    0.7685 C   0  0  1  0  0  0  0  0  0  0  0  0
    0.6672   -0.8133    0.3670 C   0  0  2  0  0  0  0  0  0  0  0  0
    1.0975   -1.7661   -0.8132 C   0  0  0  0  0  0  0  0  0  0  0  0
    1.9424   -1.6199   -1.6819 O   0  0  0  0  0  0  0  0  0  0  0  0
    0.2503   -2.8536   -0.8196 O   0  0  0  0  0  0  0  0  0  0  0  0
    0.9277    0.6543    0.0587 C   0  0  0  0  0  0  0  0  0  0  0  0
    2.3479    0.8834    0.0757 O   0  0  0  0  0  0  0  0  0  0  0  0
    2.7121    2.1517   -0.2329 C   0  0  0  0  0  0  0  0  0  0  0  0
    1.9489    3.0881   -0.4178 O   0  0  0  0  0  0  0  0  0  0  0  0
    4.1918    2.2678   -0.3118 C   0  0  0  0  0  0  0  0  0  0  0  0
    4.7424    3.5384   -0.5286 C   0  0  0  0  0  0  0  0  0  0  0  0
    6.1262    3.6990   -0.6223 C   0  0  0  0  0  0  0  0  0  0  0  0
    6.9668    2.5914   -0.5006 C   0  0  0  0  0  0  0  0  0  0  0  0
    6.4260    1.3231   -0.2850 C   0  0  0  0  0  0  0  0  0  0  0  0
    5.0418    1.1587   -0.1921 C   0  0  0  0  0  0  0  0  0  0  0  0
   -1.9748   -0.7353    0.2647 O   0  0  0  0  0  0  0  0  0  0  0  0
   -2.1066   -0.4091   -1.1207 C   0  0  1  0  0  0  0  0  0  0  0  0
   -3.5092   -0.8104   -1.6453 C   0  0  1  0  0  0  0  0  0  0  0  0
   -4.5530    0.3018   -1.4609 C   0  0  2  0  0  0  0  0  0  0  0  0
   -4.1259    1.3049   -0.3916 C   0  0  1  0  0  0  0  0  0  0  0  0
   -2.7781    1.9079   -0.8267 C   0  0  2  0  0  0  0  0  0  0  0  0
   -1.8221    0.9653   -1.3342 O   0  0  0  0  0  0  0  0  0  0  0  0
   -2.1320    2.7912    0.2583 C   0  0  0  0  0  0  0  0  0  0  0  0
   -1.9059    2.0967    1.4866 O   0  0  0  0  0  0  0  0  0  0  0  0
   -5.1037    2.3502   -0.2915 O   0  0  0  0  0  0  0  0  0  0  0  0
   -5.8171   -0.2988   -1.1147 O   0  0  0  0  0  0  0  0  0  0  0  0
   -3.4886   -1.1293   -3.0540 O   0  0  0  0  0  0  0  0  0  0  0  0
    2.6005   -2.9788    1.2787 O   0  0  0  0  0  0  0  0  0  0  0  0
   -1.6607   -4.6616    0.0042 H   0  0  0  0  0  0  0  0  0  0  0  0
   -2.5665   -3.4423    0.9300 H   0  0  0  0  0  0  0  0  0  0  0  0
   -2.3055   -3.2719   -0.8240 H   0  0  0  0  0  0  0  0  0  0  0  0
   -0.4258   -3.7752    2.3381 H   0  0  0  0  0  0  0  0  0  0  0  0
    0.6201   -4.5387    1.1269 H   0  0  0  0  0  0  0  0  0  0  0  0
    1.6182   -2.9496    3.0657 H   0  0  0  0  0  0  0  0  0  0  0  0
    1.8078   -0.5862    2.3349 H   0  0  0  0  0  0  0  0  0  0  0  0
   -0.5975    0.0891    2.5028 H   0  0  0  0  0  0  0  0  0  0  0  0
   -0.8224   -1.5801    3.0253 H   0  0  0  0  0  0  0  0  0  0  0  0
    0.4666    1.3050    0.8070 H   0  0  0  0  0  0  0  0  0  0  0  0
    0.5540    0.9138   -0.9360 H   0  0  0  0  0  0  0  0  0  0  0  0
    4.0922    4.4060   -0.6317 H   0  0  0  0  0  0  0  0  0  0  0  0
    6.5462    4.6870   -0.7967 H   0  0  0  0  0  0  0  0  0  0  0  0
    8.0453    2.7167   -0.5793 H   0  0  0  0  0  0  0  0  0  0  0  0
    7.0791    0.4574   -0.1968 H   0  0  0  0  0  0  0  0  0  0  0  0
    4.6389    0.1593   -0.0378 H   0  0  0  0  0  0  0  0  0  0  0  0
   -1.3621   -0.9648   -1.6969 H   0  0  0  0  0  0  0  0  0  0  0  0
   -3.8481   -1.7234   -1.1388 H   0  0  0  0  0  0  0  0  0  0  0  0
   -4.7268    0.8425   -2.4038 H   0  0  0  0  0  0  0  0  0  0  0  0
   -4.0790    0.7997    0.5796 H   0  0  0  0  0  0  0  0  0  0  0  0
   -2.9722    2.5876   -1.6710 H   0  0  0  0  0  0  0  0  0  0  0  0
   -2.7543    3.6658    0.4738 H   0  0  0  0  0  0  0  0  0  0  0  0
   -1.1567    3.1491   -0.0914 H   0  0  0  0  0  0  0  0  0  0  0  0
   -2.7609    1.9657    1.9230 H   0  0  0  0  0  0  0  0  0  0  0  0
   -5.1806    2.6083    0.6456 H   0  0  0  0  0  0  0  0  0  0  0  0
   -6.2012   -0.5865   -1.9628 H   0  0  0  0  0  0  0  0  0  0  0  0
   -2.7823   -1.7815   -3.2151 H   0  0  0  0  0  0  0  0  0  0  0  0
    2.8579   -3.9108    1.4269 H   0  0  0  0  0  0  0  0  0  0  0  0
  2  1  1  6
  2  3  1  0
  3  4  1  0
  4  5  1  0
  5  6  1  0
  6  7  1  0
  7  8  1  0
  8  9  1  0
  9 10  2  0
  9 11  1  0
  8 12  1  6
 12 13  1  0
 13 14  1  0
 14 15  2  0
 14 16  1  0
 16 17  2  0
 17 18  1  0
 18 19  2  0
 19 20  1  0
 20 21  2  0
  7 22  1  6
 22 23  1  0
 23 24  1  0
 24 25  1  0
 25 26  1  0
 26 27  1  0
 27 28  1  0
 27 29  1  0
 29 30  1  0
 26 31  1  0
 25 32  1  0
 24 33  1  0
  4 34  1  0
  7  2  1  0
 11  2  1  0
  8  5  1  0
 21 16  1  0
 28 23  1  0
  1 35  1  0
  1 36  1  0
  1 37  1  0
  3 38  1  0
  3 39  1  0
  4 40  1  1
  5 41  1  1
  6 42  1  0
  6 43  1  0
 12 44  1  0
 12 45  1  0
 17 46  1  0
 18 47  1  0
 19 48  1  0
 20 49  1  0
 21 50  1  0
 23 51  1  6
 24 52  1  1
 25 53  1  6
 26 54  1  1
 27 55  1  6
 29 56  1  0
 29 57  1  0
 30 58  1  0
 31 59  1  0
 32 60  1  0
 33 61  1  0
 34 62  1  0
M  END
$$$$
