
     RDKit          3D

 46 48  0  0  0  0  0  0  0  0999 V2000
   -4.5220   -2.4157    1.6631 C   0  0  0  0  0  0  0  0  0  0  0  0
   -3.9539   -1.1085    1.4348 N   0  0  0  0  0  0  0  0  0  0  0  0
   -2.8973   -0.9310    0.5651 C   0  0  0  0  0  0  0  0  0  0  0  0
   -2.4590   -1.8712   -0.0965 O   0  0  0  0  0  0  0  0  0  0  0  0
   -2.2900    0.5110    0.4847 C   0  0  0  0  0  0  0  0  0  0  0  0
   -3.4089    1.5747    0.2091 C   0  0  0  0  0  0  0  0  0  0  0  0
   -3.3630    2.5741    1.3631 C   0  0  0  0  0  0  0  0  0  0  0  0
   -2.8309    1.7551    2.5059 C   0  0  0  0  0  0  0  0  0  0  0  0
   -3.8084    0.9618    3.0026 F   0  0  0  0  0  0  0  0  0  0  0  0
   -2.3721    2.5166    3.5129 F   0  0  0  0  0  0  0  0  0  0  0  0
   -1.7385    0.9178    1.8832 C   0  0  0  0  0  0  0  0  0  0  0  0
   -1.1894    0.5297   -0.6029 C   0  0  0  0  0  0  0  0  0  0  0  0
    0.1673    0.2905   -0.2905 C   0  0  0  0  0  0  0  0  0  0  0  0
    1.1777    0.2678   -1.2744 C   0  0  0  0  0  0  0  0  0  0  0  0
    0.7899    0.4678   -2.6040 C   0  0  0  0  0  0  0  0  0  0  0  0
    1.7066    0.4650   -3.5845 F   0  0  0  0  0  0  0  0  0  0  0  0
   -0.5413    0.6625   -2.9511 C   0  0  0  0  0  0  0  0  0  0  0  0
   -1.5237    0.6790   -1.9609 C   0  0  0  0  0  0  0  0  0  0  0  0
    2.5839    0.0223   -0.9072 C   0  0  0  0  0  0  0  0  0  0  0  0
    3.2138    0.7776    0.0928 C   0  0  0  0  0  0  0  0  0  0  0  0
    4.5461    0.5410    0.4437 C   0  0  0  0  0  0  0  0  0  0  0  0
    5.2837   -0.4605   -0.1994 C   0  0  0  0  0  0  0  0  0  0  0  0
    6.6490   -0.6687    0.1965 C   0  0  0  0  0  0  0  0  0  0  0  0
    7.7496   -0.8284    0.5256 N   0  0  0  0  0  0  0  0  0  0  0  0
    4.6814   -1.2317   -1.2064 C   0  0  0  0  0  0  0  0  0  0  0  0
    3.3361   -0.9796   -1.5451 C   0  0  0  0  0  0  0  0  0  0  0  0
    5.4500   -2.3180   -1.9182 C   0  0  0  0  0  0  0  0  0  0  0  0
    4.7279   -2.9462   -2.8869 F   0  0  0  0  0  0  0  0  0  0  0  0
    6.5653   -1.8480   -2.5383 F   0  0  0  0  0  0  0  0  0  0  0  0
    5.8633   -3.2990   -1.0720 F   0  0  0  0  0  0  0  0  0  0  0  0
   -5.5453   -2.2899    2.0243 H   0  0  0  0  0  0  0  0  0  0  0  0
   -4.5205   -3.0093    0.7463 H   0  0  0  0  0  0  0  0  0  0  0  0
   -3.9239   -2.9204    2.4258 H   0  0  0  0  0  0  0  0  0  0  0  0
   -4.1676   -0.3975    2.1271 H   0  0  0  0  0  0  0  0  0  0  0  0
   -3.2893    2.1311   -0.7249 H   0  0  0  0  0  0  0  0  0  0  0  0
   -4.4013    1.1107    0.1652 H   0  0  0  0  0  0  0  0  0  0  0  0
   -2.6850    3.4035    1.1320 H   0  0  0  0  0  0  0  0  0  0  0  0
   -4.3522    2.9901    1.5736 H   0  0  0  0  0  0  0  0  0  0  0  0
   -1.4937    0.0522    2.5085 H   0  0  0  0  0  0  0  0  0  0  0  0
   -0.8418    1.5450    1.8136 H   0  0  0  0  0  0  0  0  0  0  0  0
    0.4573    0.0742    0.7368 H   0  0  0  0  0  0  0  0  0  0  0  0
   -0.8083    0.7824   -3.9962 H   0  0  0  0  0  0  0  0  0  0  0  0
   -2.5604    0.7786   -2.2772 H   0  0  0  0  0  0  0  0  0  0  0  0
    2.6717    1.5733    0.6019 H   0  0  0  0  0  0  0  0  0  0  0  0
    5.0046    1.1503    1.2221 H   0  0  0  0  0  0  0  0  0  0  0  0
    2.8624   -1.5819   -2.3237 H   0  0  0  0  0  0  0  0  0  0  0  0
  1  2  1  0
  2  3  1  0
  3  4  2  0
  3  5  1  0
  5  6  1  0
  6  7  1  0
  7  8  1  0
  8  9  1  0
  8 10  1  0
  8 11  1  0
  5 12  1  0
 12 13  2  0
 13 14  1  0
 14 15  2  0
 15 16  1  0
 15 17  1  0
 17 18  2  0
 14 19  1  0
 19 20  2  0
 20 21  1  0
 21 22  2  0
 22 23  1  0
 23 24  3  0
 22 25  1  0
 25 26  2  0
 25 27  1  0
 27 28  1  0
 27 29  1  0
 27 30  1  0
 11  5  1  0
 18 12  1  0
 26 19  1  0
  1 31  1  0
  1 32  1  0
  1 33  1  0
  2 34  1  0
  6 35  1  0
  6 36  1  0
  7 37  1  0
  7 38  1  0
 11 39  1  0
 11 40  1  0
 13 41  1  0
 17 42  1  0
 18 43  1  0
 20 44  1  0
 21 45  1  0
 26 46  1  0
M  END
$$$$
