
     RDKit          3D

 62 64  0  0  0  0  0  0  0  0999 V2000
   -0.7115    5.3604   -1.4243 C   0  0  0  0  0  0  0  0  0  0  0  0
   -1.1021    4.9487   -0.0088 C   0  0  0  0  0  0  0  0  0  0  0  0
   -0.4817    3.6250    0.4394 C   0  0  0  0  0  0  0  0  0  0  0  0
   -1.1935    2.2059   -0.4519 S   0  0  0  0  0  0  0  0  0  0  0  0
   -0.3487    0.8976    0.4189 C   0  0  0  0  0  0  0  0  0  0  0  0
   -1.0134   -0.1031    1.1205 C   0  0  0  0  0  0  0  0  0  0  0  0
   -0.2704   -1.1509    1.6668 C   0  0  0  0  0  0  0  0  0  0  0  0
    1.1091   -1.1614    1.4920 C   0  0  0  0  0  0  0  0  0  0  0  0
    1.7158   -0.1220    0.7897 C   0  0  0  0  0  0  0  0  0  0  0  0
    1.0006    0.8897    0.2529 N   0  0  0  0  0  0  0  0  0  0  0  0
    3.1220   -0.1700    0.6284 N   0  0  0  0  0  0  0  0  0  0  0  0
    3.7077    1.1628    0.8587 C   0  0  0  0  0  0  0  0  0  0  0  0
    5.2298    1.0465    0.7959 C   0  0  0  0  0  0  0  0  0  0  0  0
    5.6810    0.4380   -0.5337 C   0  0  0  0  0  0  0  0  0  0  0  0
    4.9463   -0.8759   -0.8690 C   0  0  2  0  0  0  0  0  0  0  0  0
    3.4268   -0.6781   -0.7225 C   0  0  0  0  0  0  0  0  0  0  0  0
    5.4238   -2.0610   -0.0085 C   0  0  0  0  0  0  0  0  0  0  0  0
    6.7856   -2.5585   -0.4166 C   0  0  0  0  0  0  0  0  0  0  0  0
    7.4825   -2.1548   -1.3296 O   0  0  0  0  0  0  0  0  0  0  0  0
    7.2039   -3.5772    0.3614 O   0  0  0  0  0  0  0  0  0  0  0  0
   -2.4678   -0.0723    1.3477 C   0  0  0  0  0  0  0  0  0  0  0  0
   -2.9772    0.8586    1.9569 O   0  0  0  0  0  0  0  0  0  0  0  0
   -3.1571   -1.1632    0.8565 N   0  0  0  0  0  0  0  0  0  0  0  0
   -4.6159   -1.1946    0.8657 C   0  0  0  0  0  0  0  0  0  0  0  0
   -5.1681   -0.3479   -0.2963 C   0  0  0  0  0  0  0  0  0  0  0  0
   -6.5204   -0.8565   -0.7774 C   0  0  0  0  0  0  0  0  0  0  0  0
   -6.4283   -2.2915   -1.2985 C   0  0  0  0  0  0  0  0  0  0  0  0
   -5.3731   -3.1363   -0.5805 C   0  0  0  0  0  0  0  0  0  0  0  0
   -5.1214   -2.6461    0.8409 C   0  0  0  0  0  0  0  0  0  0  0  0
    0.3777    5.4044   -1.5337 H   0  0  0  0  0  0  0  0  0  0  0  0
   -1.1059    4.6672   -2.1737 H   0  0  0  0  0  0  0  0  0  0  0  0
   -1.1155    6.3539   -1.6484 H   0  0  0  0  0  0  0  0  0  0  0  0
   -0.7617    5.7338    0.6791 H   0  0  0  0  0  0  0  0  0  0  0  0
   -2.1963    4.9124    0.0793 H   0  0  0  0  0  0  0  0  0  0  0  0
   -0.6748    3.4906    1.5101 H   0  0  0  0  0  0  0  0  0  0  0  0
    0.6037    3.6482    0.2913 H   0  0  0  0  0  0  0  0  0  0  0  0
   -0.7540   -1.9373    2.2394 H   0  0  0  0  0  0  0  0  0  0  0  0
    1.7149   -1.9567    1.9156 H   0  0  0  0  0  0  0  0  0  0  0  0
    3.4244    1.5375    1.8506 H   0  0  0  0  0  0  0  0  0  0  0  0
    3.3682    1.8936    0.1111 H   0  0  0  0  0  0  0  0  0  0  0  0
    5.5886    0.4277    1.6268 H   0  0  0  0  0  0  0  0  0  0  0  0
    5.6818    2.0372    0.9205 H   0  0  0  0  0  0  0  0  0  0  0  0
    6.7656    0.2886   -0.5178 H   0  0  0  0  0  0  0  0  0  0  0  0
    5.4788    1.1645   -1.3324 H   0  0  0  0  0  0  0  0  0  0  0  0
    5.1491   -1.1146   -1.9209 H   0  0  0  0  0  0  0  0  0  0  0  0
    3.0776    0.0267   -1.4917 H   0  0  0  0  0  0  0  0  0  0  0  0
    2.9161   -1.6334   -0.9038 H   0  0  0  0  0  0  0  0  0  0  0  0
    5.4563   -1.7936    1.0523 H   0  0  0  0  0  0  0  0  0  0  0  0
    4.7340   -2.9037   -0.1310 H   0  0  0  0  0  0  0  0  0  0  0  0
    8.0861   -3.8042    0.0008 H   0  0  0  0  0  0  0  0  0  0  0  0
   -2.6770   -1.7802    0.2122 H   0  0  0  0  0  0  0  0  0  0  0  0
   -4.9418   -0.7461    1.8130 H   0  0  0  0  0  0  0  0  0  0  0  0
   -4.4669   -0.3563   -1.1422 H   0  0  0  0  0  0  0  0  0  0  0  0
   -5.2502    0.6994    0.0183 H   0  0  0  0  0  0  0  0  0  0  0  0
   -7.2370   -0.8142    0.0524 H   0  0  0  0  0  0  0  0  0  0  0  0
   -6.9149   -0.2044   -1.5653 H   0  0  0  0  0  0  0  0  0  0  0  0
   -6.1984   -2.2813   -2.3710 H   0  0  0  0  0  0  0  0  0  0  0  0
   -7.4128   -2.7646   -1.2036 H   0  0  0  0  0  0  0  0  0  0  0  0
   -5.6880   -4.1850   -0.5672 H   0  0  0  0  0  0  0  0  0  0  0  0
   -4.4329   -3.1015   -1.1450 H   0  0  0  0  0  0  0  0  0  0  0  0
   -4.4136   -3.3128    1.3483 H   0  0  0  0  0  0  0  0  0  0  0  0
   -6.0652   -2.7080    1.4006 H   0  0  0  0  0  0  0  0  0  0  0  0
  1  2  1  0
  2  3  1  0
  3  4  1  0
  4  5  1  0
  5  6  2  0
  6  7  1  0
  7  8  2  0
  8  9  1  0
  9 10  2  0
  9 11  1  0
 11 12  1  0
 12 13  1  0
 13 14  1  0
 14 15  1  0
 15 16  1  0
 15 17  1  0
 17 18  1  0
 18 19  2  0
 18 20  1  0
  6 21  1  0
 21 22  2  0
 21 23  1  0
 23 24  1  0
 24 25  1  0
 25 26  1  0
 26 27  1  0
 27 28  1  0
 28 29  1  0
 10  5  1  0
 16 11  1  0
 29 24  1  0
  1 30  1  0
  1 31  1  0
  1 32  1  0
  2 33  1  0
  2 34  1  0
  3 35  1  0
  3 36  1  0
  7 37  1  0
  8 38  1  0
 12 39  1  0
 12 40  1  0
 13 41  1  0
 13 42  1  0
 14 43  1  0
 14 44  1  0
 15 45  1  6
 16 46  1  0
 16 47  1  0
 17 48  1  0
 17 49  1  0
 20 50  1  0
 23 51  1  0
 24 52  1  0
 25 53  1  0
 25 54  1  0
 26 55  1  0
 26 56  1  0
 27 57  1  0
 27 58  1  0
 28 59  1  0
 28 60  1  0
 29 61  1  0
 29 62  1  0
M  END
$$$$
