
     RDKit          3D

 44 47  0  0  0  0  0  0  0  0999 V2000
   -5.9110   -0.0304   -1.0087 C   0  0  0  0  0  0  0  0  0  0  0  0
   -4.4820   -0.5163   -1.0768 C   0  0  0  0  0  0  0  0  0  0  0  0
   -3.7956   -0.2826    0.2890 C   0  0  2  0  0  0  0  0  0  0  0  0
   -4.2662    1.0380    0.9496 C   0  0  0  0  0  0  0  0  0  0  0  0
   -4.7969    2.0058   -0.0199 N   0  0  0  0  0  0  0  0  0  0  0  0
   -5.9741    1.4855   -0.7255 C   0  0  0  0  0  0  0  0  0  0  0  0
   -2.2700   -0.4108    0.1569 C   0  0  0  0  0  0  0  0  0  0  0  0
   -1.4709    0.6436   -0.3542 C   0  0  0  0  0  0  0  0  0  0  0  0
   -0.0875    0.5042   -0.4609 C   0  0  0  0  0  0  0  0  0  0  0  0
    0.5326   -0.7180   -0.1137 C   0  0  0  0  0  0  0  0  0  0  0  0
   -0.2553   -1.7840    0.3580 C   0  0  0  0  0  0  0  0  0  0  0  0
   -1.6367   -1.6276    0.4874 C   0  0  0  0  0  0  0  0  0  0  0  0
    1.9485   -0.8344   -0.2334 N   0  0  0  0  0  0  0  0  0  0  0  0
    2.6933   -1.9997   -0.2237 C   0  0  0  0  0  0  0  0  0  0  0  0
    3.9918   -1.5925   -0.2604 C   0  0  0  0  0  0  0  0  0  0  0  0
    5.0859   -2.4505   -0.2294 C   0  0  0  0  0  0  0  0  0  0  0  0
    6.3000   -1.7325   -0.2689 C   0  0  0  0  0  0  0  0  0  0  0  0
    6.3782   -0.3071   -0.3471 C   0  0  0  0  0  0  0  0  0  0  0  0
    5.2363    0.5411   -0.3995 C   0  0  0  0  0  0  0  0  0  0  0  0
    3.9968   -0.1551   -0.3509 C   0  0  0  0  0  0  0  0  0  0  0  0
    2.7204    0.2671   -0.3695 N   0  0  0  0  0  0  0  0  0  0  0  0
    5.3267    2.0175   -0.5298 C   0  0  0  0  0  0  0  0  0  0  0  0
    4.3446    2.7457   -0.7274 O   0  0  0  0  0  0  0  0  0  0  0  0
    6.5485    2.6038   -0.3549 N   0  0  0  0  0  0  0  0  0  0  0  0
   -6.4656   -0.2597   -1.9340 H   0  0  0  0  0  0  0  0  0  0  0  0
   -6.4213   -0.5549   -0.1930 H   0  0  0  0  0  0  0  0  0  0  0  0
   -4.4541   -1.5837   -1.3255 H   0  0  0  0  0  0  0  0  0  0  0  0
   -3.9633    0.0008   -1.8969 H   0  0  0  0  0  0  0  0  0  0  0  0
   -4.1275   -1.0890    0.9532 H   0  0  0  0  0  0  0  0  0  0  0  0
   -3.4554    1.5096    1.5253 H   0  0  0  0  0  0  0  0  0  0  0  0
   -5.0596    0.8110    1.6736 H   0  0  0  0  0  0  0  0  0  0  0  0
   -5.0336    2.8866    0.4388 H   0  0  0  0  0  0  0  0  0  0  0  0
   -6.0511    2.0245   -1.6833 H   0  0  0  0  0  0  0  0  0  0  0  0
   -6.8857    1.7083   -0.1560 H   0  0  0  0  0  0  0  0  0  0  0  0
   -1.9451    1.5775   -0.6865 H   0  0  0  0  0  0  0  0  0  0  0  0
    0.5017    1.3356   -0.8504 H   0  0  0  0  0  0  0  0  0  0  0  0
    0.1784   -2.7358    0.6670 H   0  0  0  0  0  0  0  0  0  0  0  0
   -2.2453   -2.4516    0.8613 H   0  0  0  0  0  0  0  0  0  0  0  0
    2.2322   -2.9771   -0.2004 H   0  0  0  0  0  0  0  0  0  0  0  0
    5.0332   -3.5332   -0.1864 H   0  0  0  0  0  0  0  0  0  0  0  0
    7.2364   -2.3019   -0.2483 H   0  0  0  0  0  0  0  0  0  0  0  0
    7.3822    0.1294   -0.3740 H   0  0  0  0  0  0  0  0  0  0  0  0
    6.9236    2.4873    0.5967 H   0  0  0  0  0  0  0  0  0  0  0  0
    6.4626    3.6053   -0.5590 H   0  0  0  0  0  0  0  0  0  0  0  0
  1  2  1  0
  2  3  1  0
  3  4  1  0
  4  5  1  0
  5  6  1  0
  3  7  1  0
  7  8  2  0
  8  9  1  0
  9 10  2  0
 10 11  1  0
 11 12  2  0
 10 13  1  0
 13 14  1  0
 14 15  2  0
 15 16  1  0
 16 17  2  0
 17 18  1  0
 18 19  2  0
 19 20  1  0
 20 21  2  0
 19 22  1  0
 22 23  2  0
 22 24  1  0
  6  1  1  0
 12  7  1  0
 21 13  1  0
 20 15  1  0
  1 25  1  0
  1 26  1  0
  2 27  1  0
  2 28  1  0
  3 29  1  1
  4 30  1  0
  4 31  1  0
  5 32  1  0
  6 33  1  0
  6 34  1  0
  8 35  1  0
  9 36  1  0
 11 37  1  0
 12 38  1  0
 14 39  1  0
 16 40  1  0
 17 41  1  0
 18 42  1  0
 24 43  1  0
 24 44  1  0
M  END
$$$$
