
     RDKit          3D

 30 32  0  0  0  0  0  0  0  0999 V2000
   -2.6904    0.8188   -0.9931 C   0  0  0  0  0  0  0  0  0  0  0  0
   -4.0884    0.8164   -0.9002 C   0  0  0  0  0  0  0  0  0  0  0  0
   -4.6998    0.2127    0.1889 C   0  0  0  0  0  0  0  0  0  0  0  0
   -3.9369   -0.3874    1.1781 C   0  0  0  0  0  0  0  0  0  0  0  0
   -2.5405   -0.3856    1.0799 C   0  0  0  0  0  0  0  0  0  0  0  0
   -1.8854    0.2170   -0.0058 C   0  0  0  0  0  0  0  0  0  0  0  0
   -0.4392    0.2452   -0.1059 N   0  0  0  0  0  0  0  0  0  0  0  0
    0.2026    1.2972   -0.7550 C   0  0  0  0  0  0  0  0  0  0  0  0
    1.5310    1.4103   -0.9025 C   0  0  0  0  0  0  0  0  0  0  0  0
    2.4032    0.3650   -0.3432 C   0  0  0  0  0  0  0  0  0  0  0  0
    1.8079   -0.7157    0.3261 C   0  0  0  0  0  0  0  0  0  0  0  0
    0.3239   -0.8103    0.4480 C   0  0  0  0  0  0  0  0  0  0  0  0
   -0.1271   -1.8194    0.9879 O   0  0  0  0  0  0  0  0  0  0  0  0
    2.5984   -1.7361    0.8838 C   0  0  0  0  0  0  0  0  0  0  0  0
    3.9856   -1.6869    0.7802 C   0  0  0  0  0  0  0  0  0  0  0  0
    4.5790   -0.6225    0.1200 C   0  0  0  0  0  0  0  0  0  0  0  0
    3.8075    0.3965   -0.4388 C   0  0  0  0  0  0  0  0  0  0  0  0
    5.9397   -0.6103    0.0388 O   0  0  0  0  0  0  0  0  0  0  0  0
    2.2338    2.9070   -1.7870 Br  0  0  0  0  0  0  0  0  0  0  0  0
   -6.0549    0.1871    0.3234 O   0  0  0  0  0  0  0  0  0  0  0  0
   -2.2530    1.2626   -1.8828 H   0  0  0  0  0  0  0  0  0  0  0  0
   -4.6733    1.2800   -1.6883 H   0  0  0  0  0  0  0  0  0  0  0  0
   -4.4201   -0.8568    2.0306 H   0  0  0  0  0  0  0  0  0  0  0  0
   -1.9845   -0.8411    1.8950 H   0  0  0  0  0  0  0  0  0  0  0  0
   -0.4333    2.0944   -1.1272 H   0  0  0  0  0  0  0  0  0  0  0  0
    2.1335   -2.5746    1.3996 H   0  0  0  0  0  0  0  0  0  0  0  0
    4.5971   -2.4752    1.2106 H   0  0  0  0  0  0  0  0  0  0  0  0
    4.3120    1.2120   -0.9469 H   0  0  0  0  0  0  0  0  0  0  0  0
    6.2259    0.1824   -0.4443 H   0  0  0  0  0  0  0  0  0  0  0  0
   -6.4544    0.6173   -0.4500 H   0  0  0  0  0  0  0  0  0  0  0  0
  1  2  2  0
  2  3  1  0
  3  4  2  0
  4  5  1  0
  5  6  2  0
  6  7  1  0
  7  8  1  0
  8  9  2  0
  9 10  1  0
 10 11  2  0
 11 12  1  0
 12 13  2  0
 11 14  1  0
 14 15  2  0
 15 16  1  0
 16 17  2  0
 16 18  1  0
  9 19  1  0
  3 20  1  0
  6  1  1  0
 12  7  1  0
 17 10  1  0
  1 21  1  0
  2 22  1  0
  4 23  1  0
  5 24  1  0
  8 25  1  0
 14 26  1  0
 15 27  1  0
 17 28  1  0
 18 29  1  0
 20 30  1  0
M  END
$$$$
