
     RDKit          3D

 35 37  0  0  0  0  0  0  0  0999 V2000
    0.3931   -2.8269   -1.3853 C   0  0  0  0  0  0  0  0  0  0  0  0
   -0.4227   -1.6887   -0.8183 C   0  0  0  0  0  0  0  0  0  0  0  0
   -1.7050   -1.8521   -0.7938 N   0  0  0  0  0  0  0  0  0  0  0  0
   -2.5143   -0.8252   -0.3021 C   0  0  0  0  0  0  0  0  0  0  0  0
   -3.8956   -1.0323   -0.2820 C   0  0  0  0  0  0  0  0  0  0  0  0
   -4.7558   -0.0322    0.1645 C   0  0  0  0  0  0  0  0  0  0  0  0
   -4.2353    1.1870    0.5971 C   0  0  0  0  0  0  0  0  0  0  0  0
   -2.8523    1.4096    0.6251 C   0  0  0  0  0  0  0  0  0  0  0  0
   -1.9994    0.3918    0.1447 C   0  0  0  0  0  0  0  0  0  0  0  0
   -0.5254    0.5258    0.1324 C   0  0  0  0  0  0  0  0  0  0  0  0
    0.0005    1.5578    0.5517 O   0  0  0  0  0  0  0  0  0  0  0  0
    0.2171   -0.5602   -0.3471 N   0  0  0  0  0  0  0  0  0  0  0  0
    1.6849   -0.4069   -0.3585 C   0  0  0  0  0  0  0  0  0  0  0  0
    2.3069   -0.2000    1.0266 C   0  0  0  0  0  0  0  0  0  0  0  0
    3.8138   -0.0466    0.8871 C   0  0  0  0  0  0  0  0  0  0  0  0
    4.1703    1.0792   -0.0559 C   0  0  0  0  0  0  0  0  0  0  0  0
    5.2492    1.6618    0.0024 O   0  0  0  0  0  0  0  0  0  0  0  0
    3.2654    1.3616   -1.0478 N   0  0  0  0  0  0  0  0  0  0  0  0
    2.1011    0.6913   -1.3449 C   0  0  0  0  0  0  0  0  0  0  0  0
    1.5111    0.9039   -2.4028 O   0  0  0  0  0  0  0  0  0  0  0  0
   -2.3981    2.7045    0.9298 N   0  0  0  0  0  0  0  0  0  0  0  0
    1.0537   -3.2337   -0.6145 H   0  0  0  0  0  0  0  0  0  0  0  0
   -0.2642   -3.6312   -1.7305 H   0  0  0  0  0  0  0  0  0  0  0  0
    0.9812   -2.4787   -2.2390 H   0  0  0  0  0  0  0  0  0  0  0  0
   -4.2997   -1.9780   -0.6349 H   0  0  0  0  0  0  0  0  0  0  0  0
   -5.8306   -0.1936    0.1539 H   0  0  0  0  0  0  0  0  0  0  0  0
   -4.9205    1.9754    0.9000 H   0  0  0  0  0  0  0  0  0  0  0  0
    2.1425   -1.3127   -0.7668 H   0  0  0  0  0  0  0  0  0  0  0  0
    2.0759   -1.0552    1.6724 H   0  0  0  0  0  0  0  0  0  0  0  0
    1.9170    0.6899    1.5296 H   0  0  0  0  0  0  0  0  0  0  0  0
    4.2499    0.1712    1.8680 H   0  0  0  0  0  0  0  0  0  0  0  0
    4.2674   -0.9682    0.5061 H   0  0  0  0  0  0  0  0  0  0  0  0
    3.5424    2.0751   -1.7086 H   0  0  0  0  0  0  0  0  0  0  0  0
   -1.3870    2.7378    1.0975 H   0  0  0  0  0  0  0  0  0  0  0  0
   -2.9375    3.1988    1.6312 H   0  0  0  0  0  0  0  0  0  0  0  0
  1  2  1  0
  2  3  2  0
  3  4  1  0
  4  5  2  0
  5  6  1  0
  6  7  2  0
  7  8  1  0
  8  9  2  0
  9 10  1  0
 10 11  2  0
 10 12  1  0
 12 13  1  0
 13 14  1  0
 14 15  1  0
 15 16  1  0
 16 17  2  0
 16 18  1  0
 18 19  1  0
 19 20  2  0
  8 21  1  0
 12  2  1  0
  9  4  1  0
 19 13  1  0
  1 22  1  0
  1 23  1  0
  1 24  1  0
  5 25  1  0
  6 26  1  0
  7 27  1  0
 13 28  1  0
 14 29  1  0
 14 30  1  0
 15 31  1  0
 15 32  1  0
 18 33  1  0
 21 34  1  0
 21 35  1  0
M  END
$$$$
