
     RDKit          3D

120126  0  0  0  0  0  0  0  0999 V2000
    8.8547   -4.3167   -0.0171 C   0  0  0  0  0  0  0  0  0  0  0  0
    9.3490   -2.8951    0.2909 C   0  0  0  0  0  0  0  0  0  0  0  0
   10.3097   -2.9184    1.5067 C   0  0  0  0  0  0  0  0  0  0  0  0
   10.0399   -1.8459    2.5675 C   0  0  0  0  0  0  0  0  0  0  0  0
    9.5248   -0.5406    1.9840 C   0  0  0  0  0  0  0  0  0  0  0  0
    8.5633   -0.5938    1.0345 C   0  0  0  0  0  0  0  0  0  0  0  0
    8.1258   -1.9734    0.5654 C   0  0  0  0  0  0  0  0  0  0  0  0
    7.9690    0.5837    0.2795 C   0  0  0  0  0  0  0  0  0  0  0  0
    6.7654    1.1768    0.8690 N   0  0  0  0  0  0  0  0  0  0  0  0
    6.3013    2.3442    0.0706 C   0  0  0  0  0  0  0  0  0  0  0  0
    5.5436    2.0150   -1.2447 C   0  0  0  0  0  0  0  0  0  0  0  0
    4.4732    1.0412   -0.9787 N   0  0  0  0  0  0  0  0  0  0  0  0
    4.9411   -0.1645   -0.2707 C   0  0  0  0  0  0  0  0  0  0  0  0
    5.6361    0.2477    1.0412 C   0  0  0  0  0  0  0  0  0  0  0  0
    3.1901    1.1371   -1.4834 C   0  0  0  0  0  0  0  0  0  0  0  0
    2.8818    1.8709   -2.6401 C   0  0  0  0  0  0  0  0  0  0  0  0
    1.5685    1.9481   -3.1493 C   0  0  0  0  0  0  0  0  0  0  0  0
    0.5273    1.2783   -2.5032 C   0  0  0  0  0  0  0  0  0  0  0  0
    0.8116    0.5660   -1.3373 C   0  0  0  0  0  0  0  0  0  0  0  0
    2.1151    0.5086   -0.8399 C   0  0  0  0  0  0  0  0  0  0  0  0
   -0.8762    1.3020   -2.9769 C   0  0  0  0  0  0  0  0  0  0  0  0
   -1.6555    0.4063   -2.6370 O   0  0  0  0  0  0  0  0  0  0  0  0
   -1.2714    2.4382   -3.6891 N   0  0  0  0  0  0  0  0  0  0  0  0
   -2.7661    2.6903   -4.3766 S   0  0  0  0  0  6  0  0  0  0  0  0
   -2.7384    2.0579   -5.6790 O   0  0  0  0  0  0  0  0  0  0  0  0
   -3.0273    4.1106   -4.2629 O   0  0  0  0  0  0  0  0  0  0  0  0
   -3.9351    1.8573   -3.3534 C   0  0  0  0  0  0  0  0  0  0  0  0
   -4.4949    0.6633   -3.7850 C   0  0  0  0  0  0  0  0  0  0  0  0
   -5.3382   -0.0572   -2.9181 C   0  0  0  0  0  0  0  0  0  0  0  0
   -5.7143    0.4213   -1.6500 C   0  0  0  0  0  0  0  0  0  0  0  0
   -5.0734    1.5916   -1.2288 C   0  0  0  0  0  0  0  0  0  0  0  0
   -4.2235    2.3278   -2.0757 C   0  0  0  0  0  0  0  0  0  0  0  0
   -6.5881   -0.3060   -0.8436 N   0  0  0  0  0  0  0  0  0  0  0  0
   -7.1346    0.0636    0.4637 C   0  0  2  0  0  0  0  0  0  0  0  0
   -8.1388   -1.0258    0.9311 C   0  0  0  0  0  0  0  0  0  0  0  0
   -7.5468   -2.4189    1.1826 C   0  0  0  0  0  0  0  0  0  0  0  0
   -8.5958   -3.4564    1.2755 N   0  0  0  0  0  0  0  0  0  0  0  0
   -8.0420   -4.8139    1.3764 C   0  0  0  0  0  0  0  0  0  0  0  0
   -7.5953   -5.2136    2.7945 C   0  0  0  0  0  0  0  0  0  0  0  0
   -8.6138   -5.0042    3.7675 O   0  0  0  0  0  0  0  0  0  0  0  0
   -9.0502   -3.6367    3.7385 C   0  0  0  0  0  0  0  0  0  0  0  0
   -9.5835   -3.2705    2.3492 C   0  0  0  0  0  0  0  0  0  0  0  0
   -7.8536    1.4313    0.4870 C   0  0  0  0  0  0  0  0  0  0  0  0
   -9.1162    1.6702   -0.8160 S   0  0  0  0  0  0  0  0  0  0  0  0
   -9.6719    3.2907   -0.3353 C   0  0  0  0  0  0  0  0  0  0  0  0
   -9.0075    4.4250   -0.8084 C   0  0  0  0  0  0  0  0  0  0  0  0
   -9.4250    5.6966   -0.4048 C   0  0  0  0  0  0  0  0  0  0  0  0
  -10.5029    5.8287    0.4679 C   0  0  0  0  0  0  0  0  0  0  0  0
  -11.1802    4.6967    0.9216 C   0  0  0  0  0  0  0  0  0  0  0  0
  -10.7635    3.4273    0.5189 C   0  0  0  0  0  0  0  0  0  0  0  0
   -5.8016   -1.7198   -3.4107 S   0  0  0  0  0  6  0  0  0  0  0  0
   -7.1793   -1.9104   -3.0068 O   0  0  0  0  0  0  0  0  0  0  0  0
   -5.4828   -1.8591   -4.8231 O   0  0  0  0  0  0  0  0  0  0  0  0
   -4.6702   -2.7446   -2.4061 C   0  0  0  0  0  0  0  0  0  0  0  0
   -4.8173   -4.0786   -2.6633 F   0  0  0  0  0  0  0  0  0  0  0  0
   -4.8533   -2.5938   -1.0644 F   0  0  0  0  0  0  0  0  0  0  0  0
   -3.3545   -2.4692   -2.6557 F   0  0  0  0  0  0  0  0  0  0  0  0
   10.1446    0.6985    2.4925 C   0  0  0  0  0  0  0  0  0  0  0  0
    9.3740    1.7430    3.0164 C   0  0  0  0  0  0  0  0  0  0  0  0
    9.9657    2.9248    3.4682 C   0  0  0  0  0  0  0  0  0  0  0  0
   11.3537    3.0540    3.4241 C   0  0  0  0  0  0  0  0  0  0  0  0
   12.1462    2.0193    2.9276 C   0  0  0  0  0  0  0  0  0  0  0  0
   11.5415    0.8513    2.4589 C   0  0  0  0  0  0  0  0  0  0  0  0
   12.1002    4.5012    4.0022 Cl  0  0  0  0  0  0  0  0  0  0  0  0
   10.1029   -2.3775   -0.9584 C   0  0  0  0  0  0  0  0  0  0  0  0
    8.3093   -4.7403    0.8352 H   0  0  0  0  0  0  0  0  0  0  0  0
    9.6910   -4.9883   -0.2453 H   0  0  0  0  0  0  0  0  0  0  0  0
    8.1780   -4.3225   -0.8829 H   0  0  0  0  0  0  0  0  0  0  0  0
   10.2819   -3.8983    2.0092 H   0  0  0  0  0  0  0  0  0  0  0  0
   11.3528   -2.8175    1.1624 H   0  0  0  0  0  0  0  0  0  0  0  0
   10.9485   -1.7093    3.1701 H   0  0  0  0  0  0  0  0  0  0  0  0
    9.2875   -2.2260    3.2739 H   0  0  0  0  0  0  0  0  0  0  0  0
    7.5303   -1.9000   -0.3539 H   0  0  0  0  0  0  0  0  0  0  0  0
    7.4642   -2.4204    1.3136 H   0  0  0  0  0  0  0  0  0  0  0  0
    7.8053    0.2908   -0.7735 H   0  0  0  0  0  0  0  0  0  0  0  0
    8.7442    1.3589    0.2186 H   0  0  0  0  0  0  0  0  0  0  0  0
    7.1403    3.0155   -0.1436 H   0  0  0  0  0  0  0  0  0  0  0  0
    5.6203    2.9285    0.7124 H   0  0  0  0  0  0  0  0  0  0  0  0
    6.2282    1.6129   -1.9991 H   0  0  0  0  0  0  0  0  0  0  0  0
    5.1426    2.9639   -1.6289 H   0  0  0  0  0  0  0  0  0  0  0  0
    4.1399   -0.8719   -0.0367 H   0  0  0  0  0  0  0  0  0  0  0  0
    5.6321   -0.7115   -0.9278 H   0  0  0  0  0  0  0  0  0  0  0  0
    5.9287   -0.6455    1.6072 H   0  0  0  0  0  0  0  0  0  0  0  0
    4.8908    0.7426    1.6868 H   0  0  0  0  0  0  0  0  0  0  0  0
    3.6733    2.3666   -3.1941 H   0  0  0  0  0  0  0  0  0  0  0  0
    1.4112    2.5099   -4.0680 H   0  0  0  0  0  0  0  0  0  0  0  0
    0.0197    0.0621   -0.7885 H   0  0  0  0  0  0  0  0  0  0  0  0
    2.2603   -0.0236    0.1005 H   0  0  0  0  0  0  0  0  0  0  0  0
   -0.6483    3.2407   -3.8099 H   0  0  0  0  0  0  0  0  0  0  0  0
   -4.2330    0.2741   -4.7733 H   0  0  0  0  0  0  0  0  0  0  0  0
   -5.2085    1.9629   -0.2232 H   0  0  0  0  0  0  0  0  0  0  0  0
   -3.7573    3.2336   -1.6963 H   0  0  0  0  0  0  0  0  0  0  0  0
   -7.3137   -0.7765   -1.4246 H   0  0  0  0  0  0  0  0  0  0  0  0
   -6.3078    0.0990    1.1950 H   0  0  0  0  0  0  0  0  0  0  0  0
   -8.5920   -0.6795    1.8661 H   0  0  0  0  0  0  0  0  0  0  0  0
   -8.9477   -1.1115    0.1940 H   0  0  0  0  0  0  0  0  0  0  0  0
   -6.8958   -2.6784    0.3340 H   0  0  0  0  0  0  0  0  0  0  0  0
   -6.9213   -2.4027    2.0827 H   0  0  0  0  0  0  0  0  0  0  0  0
   -8.8205   -5.5179    1.0424 H   0  0  0  0  0  0  0  0  0  0  0  0
   -7.1985   -4.9500    0.6762 H   0  0  0  0  0  0  0  0  0  0  0  0
   -7.3699   -6.2942    2.8046 H   0  0  0  0  0  0  0  0  0  0  0  0
   -6.6789   -4.6898    3.0978 H   0  0  0  0  0  0  0  0  0  0  0  0
   -9.8452   -3.5315    4.4841 H   0  0  0  0  0  0  0  0  0  0  0  0
   -8.2282   -2.9784    4.0416 H   0  0  0  0  0  0  0  0  0  0  0  0
  -10.0059   -2.2607    2.3570 H   0  0  0  0  0  0  0  0  0  0  0  0
  -10.4353   -3.9323    2.1237 H   0  0  0  0  0  0  0  0  0  0  0  0
   -7.1483    2.2615    0.4192 H   0  0  0  0  0  0  0  0  0  0  0  0
   -8.3586    1.5471    1.4679 H   0  0  0  0  0  0  0  0  0  0  0  0
   -8.1606    4.3311   -1.4835 H   0  0  0  0  0  0  0  0  0  0  0  0
   -8.9056    6.5774   -0.7700 H   0  0  0  0  0  0  0  0  0  0  0  0
  -10.8391    6.8201    0.7697 H   0  0  0  0  0  0  0  0  0  0  0  0
  -12.0293    4.8048    1.5941 H   0  0  0  0  0  0  0  0  0  0  0  0
  -11.2935    2.5537    0.8825 H   0  0  0  0  0  0  0  0  0  0  0  0
    8.2871    1.6506    3.0690 H   0  0  0  0  0  0  0  0  0  0  0  0
    9.3474    3.7329    3.8538 H   0  0  0  0  0  0  0  0  0  0  0  0
   13.2321    2.1190    2.9036 H   0  0  0  0  0  0  0  0  0  0  0  0
   12.1726    0.0606    2.0598 H   0  0  0  0  0  0  0  0  0  0  0  0
    9.4235   -2.2704   -1.8143 H   0  0  0  0  0  0  0  0  0  0  0  0
   10.5667   -1.3993   -0.7860 H   0  0  0  0  0  0  0  0  0  0  0  0
   10.8958   -3.0742   -1.2620 H   0  0  0  0  0  0  0  0  0  0  0  0
  1  2  1  0
  2  3  1  0
  3  4  1  0
  4  5  1  0
  5  6  2  0
  6  7  1  0
  6  8  1  0
  8  9  1  0
  9 10  1  0
 10 11  1  0
 11 12  1  0
 12 13  1  0
 13 14  1  0
 12 15  1  0
 15 16  2  0
 16 17  1  0
 17 18  2  0
 18 19  1  0
 19 20  2  0
 18 21  1  0
 21 22  2  0
 21 23  1  0
 23 24  1  0
 24 25  2  0
 24 26  2  0
 24 27  1  0
 27 28  2  0
 28 29  1  0
 29 30  2  0
 30 31  1  0
 31 32  2  0
 30 33  1  0
 33 34  1  0
 34 35  1  0
 35 36  1  0
 36 37  1  0
 37 38  1  0
 38 39  1  0
 39 40  1  0
 40 41  1  0
 41 42  1  0
 34 43  1  0
 43 44  1  0
 44 45  1  0
 45 46  2  0
 46 47  1  0
 47 48  2  0
 48 49  1  0
 49 50  2  0
 29 51  1  0
 51 52  2  0
 51 53  2  0
 51 54  1  0
 54 55  1  0
 54 56  1  0
 54 57  1  0
  5 58  1  0
 58 59  2  0
 59 60  1  0
 60 61  2  0
 61 62  1  0
 62 63  2  0
 61 64  1  0
  2 65  1  0
  7  2  1  0
 14  9  1  0
 20 15  1  0
 32 27  1  0
 42 37  1  0
 50 45  1  0
 63 58  1  0
  1 66  1  0
  1 67  1  0
  1 68  1  0
  3 69  1  0
  3 70  1  0
  4 71  1  0
  4 72  1  0
  7 73  1  0
  7 74  1  0
  8 75  1  0
  8 76  1  0
 10 77  1  0
 10 78  1  0
 11 79  1  0
 11 80  1  0
 13 81  1  0
 13 82  1  0
 14 83  1  0
 14 84  1  0
 16 85  1  0
 17 86  1  0
 19 87  1  0
 20 88  1  0
 23 89  1  0
 28 90  1  0
 31 91  1  0
 32 92  1  0
 33 93  1  0
 34 94  1  1
 35 95  1  0
 35 96  1  0
 36 97  1  0
 36 98  1  0
 38 99  1  0
 38100  1  0
 39101  1  0
 39102  1  0
 41103  1  0
 41104  1  0
 42105  1  0
 42106  1  0
 43107  1  0
 43108  1  0
 46109  1  0
 47110  1  0
 48111  1  0
 49112  1  0
 50113  1  0
 59114  1  0
 60115  1  0
 62116  1  0
 63117  1  0
 65118  1  0
 65119  1  0
 65120  1  0
M  END
$$$$
