
     RDKit          3D

 52 56  0  0  0  0  0  0  0  0999 V2000
   -8.9033    1.3567    0.3648 C   0  0  0  0  0  0  0  0  0  0  0  0
   -7.4226    1.2776    0.3612 C   0  0  0  0  0  0  0  0  0  0  0  0
   -6.4728    2.1337   -0.1576 C   0  0  0  0  0  0  0  0  0  0  0  0
   -5.1903    1.5804    0.1073 C   0  0  0  0  0  0  0  0  0  0  0  0
   -5.3940    0.3823    0.7934 C   0  0  0  0  0  0  0  0  0  0  0  0
   -6.7545    0.2235    0.9353 N   0  0  0  0  0  0  0  0  0  0  0  0
   -4.3379   -0.4389    1.2089 C   0  0  0  0  0  0  0  0  0  0  0  0
   -3.0335   -0.0212    0.9178 C   0  0  0  0  0  0  0  0  0  0  0  0
   -2.7982    1.1841    0.2499 C   0  0  0  0  0  0  0  0  0  0  0  0
   -3.8708    1.9776   -0.1717 C   0  0  0  0  0  0  0  0  0  0  0  0
   -3.6390    3.1226   -0.8334 F   0  0  0  0  0  0  0  0  0  0  0  0
   -1.5328    1.6195   -0.0879 O   0  0  0  0  0  0  0  0  0  0  0  0
   -0.5444    1.4662    0.8624 C   0  0  0  0  0  0  0  0  0  0  0  0
    0.6001    0.7109    0.5425 C   0  0  0  0  0  0  0  0  0  0  0  0
    0.7801    0.0596   -0.7027 C   0  0  0  0  0  0  0  0  0  0  0  0
    1.9247   -0.6942   -0.9616 C   0  0  0  0  0  0  0  0  0  0  0  0
    2.9042   -0.7659    0.0329 C   0  0  0  0  0  0  0  0  0  0  0  0
    2.7225   -0.1400    1.2689 C   0  0  0  0  0  0  0  0  0  0  0  0
    1.5886    0.6068    1.5405 C   0  0  0  0  0  0  0  0  0  0  0  0
    1.4738    1.2034    2.7408 N   0  0  0  0  0  0  0  0  0  0  0  0
    0.3720    1.9434    2.9896 C   0  0  0  0  0  0  0  0  0  0  0  0
   -0.6574    2.1101    2.0903 C   0  0  0  0  0  0  0  0  0  0  0  0
    4.0473   -1.5108   -0.1185 O   0  0  0  0  0  0  0  0  0  0  0  0
    4.9854   -0.8405   -0.9766 C   0  0  0  0  0  0  0  0  0  0  0  0
    6.3842   -1.4599   -0.8531 C   0  0  0  0  0  0  0  0  0  0  0  0
    6.5113   -2.9416   -0.5669 C   0  0  0  0  0  0  0  0  0  0  0  0
    6.8448   -1.9424    0.5059 C   0  0  0  0  0  0  0  0  0  0  0  0
    7.4129   -0.8608   -1.7367 N   0  0  0  0  0  0  0  0  0  0  0  0
    2.1688   -1.3810   -2.1187 O   0  0  0  0  0  0  0  0  0  0  0  0
    1.1192   -1.4431   -3.0769 C   0  0  0  0  0  0  0  0  0  0  0  0
   -9.2491    2.2668   -0.1358 H   0  0  0  0  0  0  0  0  0  0  0  0
   -9.3347    0.4978   -0.1575 H   0  0  0  0  0  0  0  0  0  0  0  0
   -9.2854    1.3668    1.3901 H   0  0  0  0  0  0  0  0  0  0  0  0
   -6.6709    3.0626   -0.6784 H   0  0  0  0  0  0  0  0  0  0  0  0
   -7.1941   -0.5631    1.3942 H   0  0  0  0  0  0  0  0  0  0  0  0
   -4.5169   -1.3738    1.7319 H   0  0  0  0  0  0  0  0  0  0  0  0
   -2.2053   -0.6599    1.2152 H   0  0  0  0  0  0  0  0  0  0  0  0
    0.0011    0.1609   -1.4522 H   0  0  0  0  0  0  0  0  0  0  0  0
    3.4893   -0.2348    2.0334 H   0  0  0  0  0  0  0  0  0  0  0  0
    0.3447    2.4158    3.9675 H   0  0  0  0  0  0  0  0  0  0  0  0
   -1.5149    2.7254    2.3350 H   0  0  0  0  0  0  0  0  0  0  0  0
    4.6622   -0.9316   -2.0198 H   0  0  0  0  0  0  0  0  0  0  0  0
    5.0562    0.2237   -0.7134 H   0  0  0  0  0  0  0  0  0  0  0  0
    7.3291   -3.4966   -1.0122 H   0  0  0  0  0  0  0  0  0  0  0  0
    5.6062   -3.5284   -0.4484 H   0  0  0  0  0  0  0  0  0  0  0  0
    6.1648   -1.8559    1.3464 H   0  0  0  0  0  0  0  0  0  0  0  0
    7.8851   -1.8144    0.7815 H   0  0  0  0  0  0  0  0  0  0  0  0
    8.3368   -1.2350   -1.5257 H   0  0  0  0  0  0  0  0  0  0  0  0
    7.2268   -1.1140   -2.7070 H   0  0  0  0  0  0  0  0  0  0  0  0
    1.4494   -2.0923   -3.8934 H   0  0  0  0  0  0  0  0  0  0  0  0
    0.2135   -1.8843   -2.6479 H   0  0  0  0  0  0  0  0  0  0  0  0
    0.9174   -0.4540   -3.5002 H   0  0  0  0  0  0  0  0  0  0  0  0
  1  2  1  0
  2  3  2  0
  3  4  1  0
  4  5  2  0
  5  6  1  0
  5  7  1  0
  7  8  2  0
  8  9  1  0
  9 10  2  0
 10 11  1  0
  9 12  1  0
 12 13  1  0
 13 14  1  0
 14 15  2  0
 15 16  1  0
 16 17  2  0
 17 18  1  0
 18 19  2  0
 19 20  1  0
 20 21  2  0
 21 22  1  0
 17 23  1  0
 23 24  1  0
 24 25  1  0
 25 26  1  0
 26 27  1  0
 25 28  1  0
 16 29  1  0
 29 30  1  0
  6  2  1  0
 10  4  1  0
 22 13  2  0
 19 14  1  0
 27 25  1  0
  1 31  1  0
  1 32  1  0
  1 33  1  0
  3 34  1  0
  6 35  1  0
  7 36  1  0
  8 37  1  0
 15 38  1  0
 18 39  1  0
 21 40  1  0
 22 41  1  0
 24 42  1  0
 24 43  1  0
 26 44  1  0
 26 45  1  0
 27 46  1  0
 27 47  1  0
 28 48  1  0
 28 49  1  0
 30 50  1  0
 30 51  1  0
 30 52  1  0
M  END
$$$$
