
     RDKit          3D

 69 71  0  0  0  0  0  0  0  0999 V2000
    5.9543    1.9766    4.1180 C   0  0  0  0  0  0  0  0  0  0  0  0
    5.7520    1.7788    2.6546 C   0  0  0  0  0  0  0  0  0  0  0  0
    6.1600    2.6279    1.7379 N   0  0  0  0  0  0  0  0  0  0  0  0
    5.8028    2.1609    0.4852 C   0  0  0  0  0  0  0  0  0  0  0  0
    5.1295    0.9572    0.4595 C   0  0  0  0  0  0  0  0  0  0  0  0
    4.9449    0.3855    2.0621 S   0  0  0  0  0  0  0  0  0  0  0  0
    4.6262    0.2659   -0.7068 C   0  0  0  0  0  0  0  0  0  0  0  0
    4.6640    0.7638   -1.8291 O   0  0  0  0  0  0  0  0  0  0  0  0
    4.0973   -0.9891   -0.4748 N   0  0  0  0  0  0  0  0  0  0  0  0
    3.6888   -1.8774   -1.5704 C   0  0  1  0  0  0  0  0  0  0  0  0
    4.4138   -3.2341   -1.4970 C   0  0  0  0  0  0  0  0  0  0  0  0
    5.8298   -3.0478   -1.6091 O   0  0  0  0  0  0  0  0  0  0  0  0
    6.5175   -4.2905   -1.7057 C   0  0  0  0  0  0  0  0  0  0  0  0
    2.1778   -2.1521   -1.5796 C   0  0  0  0  0  0  0  0  0  0  0  0
    1.6630   -2.9502   -2.3647 O   0  0  0  0  0  0  0  0  0  0  0  0
    1.4424   -1.4383   -0.6573 N   0  0  0  0  0  0  0  0  0  0  0  0
    0.0103   -1.6471   -0.4853 C   0  0  1  0  0  0  0  0  0  0  0  0
   -0.3107   -2.4936    0.7632 C   0  0  0  0  0  0  0  0  0  0  0  0
    0.2785   -3.7938    0.6545 O   0  0  0  0  0  0  0  0  0  0  0  0
   -0.1089   -4.6532    1.7185 C   0  0  0  0  0  0  0  0  0  0  0  0
   -0.7078   -0.2950   -0.3696 C   0  0  0  0  0  0  0  0  0  0  0  0
   -0.1626    0.7138    0.0817 O   0  0  0  0  0  0  0  0  0  0  0  0
   -2.0217   -0.3254   -0.7856 N   0  0  0  0  0  0  0  0  0  0  0  0
   -2.9554    0.7900   -0.5584 C   0  0  1  0  0  0  0  0  0  0  0  0
   -3.8966    0.8988   -1.7682 C   0  0  0  0  0  0  0  0  0  0  0  0
   -4.6867    2.1825   -1.8451 C   0  0  0  0  0  0  0  0  0  0  0  0
   -4.0549    3.3850   -2.1877 C   0  0  0  0  0  0  0  0  0  0  0  0
   -4.7832    4.5756   -2.2499 C   0  0  0  0  0  0  0  0  0  0  0  0
   -6.1487    4.5730   -1.9700 C   0  0  0  0  0  0  0  0  0  0  0  0
   -6.7901    3.3783   -1.6428 C   0  0  0  0  0  0  0  0  0  0  0  0
   -6.0632    2.1852   -1.5872 C   0  0  0  0  0  0  0  0  0  0  0  0
   -3.7232    0.4196    0.7192 C   0  0  0  0  0  0  0  0  0  0  0  0
   -3.8738   -0.7484    1.0764 O   0  0  0  0  0  0  0  0  0  0  0  0
   -4.3186    1.5145    1.5422 C   0  0  1  0  0  0  0  0  0  0  0  0
   -3.3968    2.3123    2.4510 C   0  0  0  0  0  0  0  0  0  0  0  0
   -3.9015    2.8508    1.2192 O   0  0  0  0  0  0  0  0  0  0  0  0
   -5.7589    1.4096    1.9506 C   0  0  0  0  0  0  0  0  0  0  0  0
    7.0236    1.9165    4.3510 H   0  0  0  0  0  0  0  0  0  0  0  0
    5.4233    1.2255    4.7165 H   0  0  0  0  0  0  0  0  0  0  0  0
    5.5855    2.9690    4.4034 H   0  0  0  0  0  0  0  0  0  0  0  0
    6.0613    2.7456   -0.3932 H   0  0  0  0  0  0  0  0  0  0  0  0
    4.1739   -1.3737    0.4578 H   0  0  0  0  0  0  0  0  0  0  0  0
    3.9308   -1.3889   -2.5225 H   0  0  0  0  0  0  0  0  0  0  0  0
    4.1945   -3.7286   -0.5403 H   0  0  0  0  0  0  0  0  0  0  0  0
    4.0701   -3.8924   -2.3047 H   0  0  0  0  0  0  0  0  0  0  0  0
    7.5900   -4.0869   -1.7752 H   0  0  0  0  0  0  0  0  0  0  0  0
    6.3336   -4.9036   -0.8183 H   0  0  0  0  0  0  0  0  0  0  0  0
    6.2151   -4.8258   -2.6076 H   0  0  0  0  0  0  0  0  0  0  0  0
    1.8755   -0.6432   -0.2041 H   0  0  0  0  0  0  0  0  0  0  0  0
   -0.3704   -2.1685   -1.3722 H   0  0  0  0  0  0  0  0  0  0  0  0
    0.0735   -2.0040    1.6702 H   0  0  0  0  0  0  0  0  0  0  0  0
   -1.3977   -2.6033    0.8684 H   0  0  0  0  0  0  0  0  0  0  0  0
    0.4270   -5.6010    1.6067 H   0  0  0  0  0  0  0  0  0  0  0  0
    0.1607   -4.2182    2.6844 H   0  0  0  0  0  0  0  0  0  0  0  0
   -1.1832   -4.8563    1.6777 H   0  0  0  0  0  0  0  0  0  0  0  0
   -2.4505   -1.2405   -0.8795 H   0  0  0  0  0  0  0  0  0  0  0  0
   -2.3741    1.7003   -0.3985 H   0  0  0  0  0  0  0  0  0  0  0  0
   -4.5802    0.0377   -1.7968 H   0  0  0  0  0  0  0  0  0  0  0  0
   -3.3081    0.8278   -2.6958 H   0  0  0  0  0  0  0  0  0  0  0  0
   -2.9880    3.4115   -2.4065 H   0  0  0  0  0  0  0  0  0  0  0  0
   -4.2837    5.5045   -2.5118 H   0  0  0  0  0  0  0  0  0  0  0  0
   -6.7166    5.4982   -2.0092 H   0  0  0  0  0  0  0  0  0  0  0  0
   -7.8548    3.3739   -1.4278 H   0  0  0  0  0  0  0  0  0  0  0  0
   -6.5846    1.2638   -1.3358 H   0  0  0  0  0  0  0  0  0  0  0  0
   -3.7905    2.7186    3.3749 H   0  0  0  0  0  0  0  0  0  0  0  0
   -2.3461    2.0530    2.4883 H   0  0  0  0  0  0  0  0  0  0  0  0
   -6.3524    0.9251    1.1659 H   0  0  0  0  0  0  0  0  0  0  0  0
   -5.8457    0.8027    2.8592 H   0  0  0  0  0  0  0  0  0  0  0  0
   -6.2015    2.3915    2.1504 H   0  0  0  0  0  0  0  0  0  0  0  0
  1  2  1  0
  2  3  2  0
  3  4  1  0
  4  5  2  0
  5  6  1  0
  5  7  1  0
  7  8  2  0
  7  9  1  0
  9 10  1  0
 10 11  1  0
 11 12  1  0
 12 13  1  0
 10 14  1  0
 14 15  2  0
 14 16  1  0
 16 17  1  0
 17 18  1  0
 18 19  1  0
 19 20  1  0
 17 21  1  0
 21 22  2  0
 21 23  1  0
 23 24  1  0
 24 25  1  0
 25 26  1  0
 26 27  2  0
 27 28  1  0
 28 29  2  0
 29 30  1  0
 30 31  2  0
 24 32  1  0
 32 33  2  0
 32 34  1  0
 34 35  1  0
 35 36  1  0
 34 37  1  1
  6  2  1  0
 31 26  1  0
 36 34  1  0
  1 38  1  0
  1 39  1  0
  1 40  1  0
  4 41  1  0
  9 42  1  0
 10 43  1  6
 11 44  1  0
 11 45  1  0
 13 46  1  0
 13 47  1  0
 13 48  1  0
 16 49  1  0
 17 50  1  6
 18 51  1  0
 18 52  1  0
 20 53  1  0
 20 54  1  0
 20 55  1  0
 23 56  1  0
 24 57  1  1
 25 58  1  0
 25 59  1  0
 27 60  1  0
 28 61  1  0
 29 62  1  0
 30 63  1  0
 31 64  1  0
 35 65  1  0
 35 66  1  0
 37 67  1  0
 37 68  1  0
 37 69  1  0
M  END
$$$$
