
     RDKit          3D

 69 73  0  0  0  0  0  0  0  0999 V2000
   -6.0104   -3.1917   -1.7961 C   0  0  0  0  0  0  0  0  0  0  0  0
   -5.6342   -3.0628   -0.3107 C   0  0  0  0  0  0  0  0  0  0  0  0
   -6.9120   -2.9266    0.5383 C   0  0  0  0  0  0  0  0  0  0  0  0
   -4.9205   -4.3620    0.1287 C   0  0  0  0  0  0  0  0  0  0  0  0
   -4.7290   -1.8519   -0.1318 C   0  0  0  0  0  0  0  0  0  0  0  0
   -5.2277   -0.6080   -0.0802 N   0  0  0  0  0  0  0  0  0  0  0  0
   -4.1574    0.1699    0.1970 N   0  0  0  0  0  0  0  0  0  0  0  0
   -2.9589   -0.5197    0.1032 C   0  0  0  0  0  0  0  0  0  0  0  0
   -3.3159   -1.8385   -0.0606 C   0  0  0  0  0  0  0  0  0  0  0  0
   -1.7137    0.0892    0.1541 N   0  0  0  0  0  0  0  0  0  0  0  0
   -0.5652   -0.5797   -0.2281 C   0  0  0  0  0  0  0  0  0  0  0  0
   -0.5221   -1.7014   -0.7441 O   0  0  0  0  0  0  0  0  0  0  0  0
    0.5531    0.1603    0.1351 N   0  0  0  0  0  0  0  0  0  0  0  0
    1.8200   -0.4592   -0.0617 C   0  0  0  0  0  0  0  0  0  0  0  0
    2.5655   -0.8324    1.0612 C   0  0  0  0  0  0  0  0  0  0  0  0
    3.7344   -1.5807    0.9182 C   0  0  0  0  0  0  0  0  0  0  0  0
    4.1694   -1.8868   -0.3731 C   0  0  0  0  0  0  0  0  0  0  0  0
    3.4541   -1.4838   -1.5079 C   0  0  0  0  0  0  0  0  0  0  0  0
    2.2610   -0.7733   -1.3429 C   0  0  0  0  0  0  0  0  0  0  0  0
    5.2938   -2.6410   -0.5712 O   0  0  0  0  0  0  0  0  0  0  0  0
    6.5106   -2.0249   -0.3821 C   0  0  0  0  0  0  0  0  0  0  0  0
    6.6974   -0.6578   -0.2090 C   0  0  0  0  0  0  0  0  0  0  0  0
    8.0005   -0.2010   -0.0373 C   0  0  0  0  0  0  0  0  0  0  0  0
    9.0976   -1.0067   -0.0361 N   0  0  0  0  0  0  0  0  0  0  0  0
    8.8726   -2.3229   -0.2199 C   0  0  0  0  0  0  0  0  0  0  0  0
    7.6086   -2.8724   -0.3969 C   0  0  0  0  0  0  0  0  0  0  0  0
    8.2446    1.2632    0.1668 C   0  0  0  0  0  0  0  0  0  0  0  0
    7.3197    2.0634    0.2578 O   0  0  0  0  0  0  0  0  0  0  0  0
    9.5780    1.5962    0.2461 N   0  0  0  0  0  0  0  0  0  0  0  0
   10.0366    2.9152    0.5622 C   0  0  0  0  0  0  0  0  0  0  0  0
    2.1213   -0.5469    2.2917 F   0  0  0  0  0  0  0  0  0  0  0  0
   -4.3257    1.5310    0.5137 C   0  0  0  0  0  0  0  0  0  0  0  0
   -4.8214    2.4002   -0.4526 C   0  0  0  0  0  0  0  0  0  0  0  0
   -4.9352    3.7690   -0.1463 C   0  0  0  0  0  0  0  0  0  0  0  0
   -4.6287    4.2487    1.1536 C   0  0  0  0  0  0  0  0  0  0  0  0
   -4.1686    3.3444    2.0949 C   0  0  0  0  0  0  0  0  0  0  0  0
   -3.9877    1.9896    1.7898 C   0  0  0  0  0  0  0  0  0  0  0  0
   -4.7459    5.5453    1.4899 N   0  0  0  0  0  0  0  0  0  0  0  0
   -5.1531    6.4088    0.5365 C   0  0  0  0  0  0  0  0  0  0  0  0
   -5.4480    6.0426   -0.7644 C   0  0  0  0  0  0  0  0  0  0  0  0
   -5.3374    4.7007   -1.1042 C   0  0  0  0  0  0  0  0  0  0  0  0
   -6.5370   -2.2999   -2.1613 H   0  0  0  0  0  0  0  0  0  0  0  0
   -5.1152   -3.3075   -2.4183 H   0  0  0  0  0  0  0  0  0  0  0  0
   -6.6532   -4.0595   -1.9711 H   0  0  0  0  0  0  0  0  0  0  0  0
   -7.5107   -2.0552    0.2518 H   0  0  0  0  0  0  0  0  0  0  0  0
   -7.5591   -3.8039    0.4188 H   0  0  0  0  0  0  0  0  0  0  0  0
   -6.6713   -2.8238    1.6057 H   0  0  0  0  0  0  0  0  0  0  0  0
   -4.5871   -4.3098    1.1725 H   0  0  0  0  0  0  0  0  0  0  0  0
   -5.5772   -5.2302    0.0374 H   0  0  0  0  0  0  0  0  0  0  0  0
   -4.0390   -4.5648   -0.4886 H   0  0  0  0  0  0  0  0  0  0  0  0
   -2.6452   -2.6867   -0.1436 H   0  0  0  0  0  0  0  0  0  0  0  0
   -1.6638    1.0954    0.2342 H   0  0  0  0  0  0  0  0  0  0  0  0
    0.4316    0.5357    1.0663 H   0  0  0  0  0  0  0  0  0  0  0  0
    4.2778   -1.9221    1.7936 H   0  0  0  0  0  0  0  0  0  0  0  0
    3.8100   -1.7410   -2.5041 H   0  0  0  0  0  0  0  0  0  0  0  0
    1.6806   -0.4955   -2.2246 H   0  0  0  0  0  0  0  0  0  0  0  0
    5.8834    0.0554   -0.2061 H   0  0  0  0  0  0  0  0  0  0  0  0
    9.7567   -2.9488   -0.2221 H   0  0  0  0  0  0  0  0  0  0  0  0
    7.4815   -3.9380   -0.5472 H   0  0  0  0  0  0  0  0  0  0  0  0
   10.2201    0.8103    0.2489 H   0  0  0  0  0  0  0  0  0  0  0  0
   10.2196    2.9665    1.6359 H   0  0  0  0  0  0  0  0  0  0  0  0
    9.3022    3.6688    0.2793 H   0  0  0  0  0  0  0  0  0  0  0  0
   10.9716    3.0896    0.0293 H   0  0  0  0  0  0  0  0  0  0  0  0
   -5.0754    2.0294   -1.4452 H   0  0  0  0  0  0  0  0  0  0  0  0
   -3.9456    3.7037    3.0972 H   0  0  0  0  0  0  0  0  0  0  0  0
   -3.6373    1.3102    2.5666 H   0  0  0  0  0  0  0  0  0  0  0  0
   -5.2284    7.4396    0.8606 H   0  0  0  0  0  0  0  0  0  0  0  0
   -5.7485    6.7844   -1.4967 H   0  0  0  0  0  0  0  0  0  0  0  0
   -5.5616    4.3919   -2.1263 H   0  0  0  0  0  0  0  0  0  0  0  0
  1  2  1  0
  2  3  1  0
  2  4  1  0
  2  5  1  0
  5  6  2  0
  6  7  1  0
  7  8  1  0
  8  9  2  0
  8 10  1  0
 10 11  1  0
 11 12  2  0
 11 13  1  0
 13 14  1  0
 14 15  2  0
 15 16  1  0
 16 17  2  0
 17 18  1  0
 18 19  2  0
 17 20  1  0
 20 21  1  0
 21 22  2  0
 22 23  1  0
 23 24  2  0
 24 25  1  0
 25 26  2  0
 23 27  1  0
 27 28  2  0
 27 29  1  0
 29 30  1  0
 15 31  1  0
  7 32  1  0
 32 33  2  0
 33 34  1  0
 34 35  2  0
 35 36  1  0
 36 37  2  0
 35 38  1  0
 38 39  2  0
 39 40  1  0
 40 41  2  0
  9  5  1  0
 19 14  1  0
 26 21  1  0
 37 32  1  0
 41 34  1  0
  1 42  1  0
  1 43  1  0
  1 44  1  0
  3 45  1  0
  3 46  1  0
  3 47  1  0
  4 48  1  0
  4 49  1  0
  4 50  1  0
  9 51  1  0
 10 52  1  0
 13 53  1  0
 16 54  1  0
 18 55  1  0
 19 56  1  0
 22 57  1  0
 25 58  1  0
 26 59  1  0
 29 60  1  0
 30 61  1  0
 30 62  1  0
 30 63  1  0
 33 64  1  0
 36 65  1  0
 37 66  1  0
 39 67  1  0
 40 68  1  0
 41 69  1  0
M  END
$$$$
