
     RDKit          3D

 61 65  0  0  0  0  0  0  0  0999 V2000
   -4.9902   -2.6997    1.1329 C   0  0  0  0  0  0  0  0  0  0  0  0
   -5.6005   -2.7097   -0.1579 O   0  0  0  0  0  0  0  0  0  0  0  0
   -5.5955   -1.4446   -0.6896 C   0  0  0  0  0  0  0  0  0  0  0  0
   -4.5046   -1.0522   -1.4610 C   0  0  0  0  0  0  0  0  0  0  0  0
   -4.4695    0.2358   -2.0320 C   0  0  0  0  0  0  0  0  0  0  0  0
   -3.3770    0.7272   -2.7719 C   0  0  0  0  0  0  0  0  0  0  0  0
   -3.4116    1.9963   -3.3392 C   0  0  0  0  0  0  0  0  0  0  0  0
   -4.5327    2.7617   -3.1093 C   0  0  0  0  0  0  0  0  0  0  0  0
   -5.5899    2.3465   -2.3766 N   0  0  0  0  0  0  0  0  0  0  0  0
   -5.5612    1.1082   -1.8506 C   0  0  0  0  0  0  0  0  0  0  0  0
   -6.6481    0.6783   -1.0952 C   0  0  0  0  0  0  0  0  0  0  0  0
   -6.6877   -0.5910   -0.5087 C   0  0  0  0  0  0  0  0  0  0  0  0
   -7.7151   -1.0747    0.2584 O   0  0  0  0  0  0  0  0  0  0  0  0
   -8.8985   -0.2864    0.3319 C   0  0  0  0  0  0  0  0  0  0  0  0
   -2.2748   -0.0718   -2.9877 O   0  0  0  0  0  0  0  0  0  0  0  0
   -1.1237    0.2995   -2.3286 C   0  0  0  0  0  0  0  0  0  0  0  0
   -1.0938    0.6020   -0.9658 C   0  0  0  0  0  0  0  0  0  0  0  0
    0.1184    0.9162   -0.3432 C   0  0  0  0  0  0  0  0  0  0  0  0
    1.3084    0.9236   -1.0727 C   0  0  0  0  0  0  0  0  0  0  0  0
    1.2693    0.6092   -2.4386 C   0  0  0  0  0  0  0  0  0  0  0  0
    0.0607    0.2833   -3.0608 C   0  0  0  0  0  0  0  0  0  0  0  0
    2.5657    1.2274   -0.5142 N   0  0  0  0  0  0  0  0  0  0  0  0
    2.8619    1.4425    0.8156 C   0  0  0  0  0  0  0  0  0  0  0  0
    2.1106    1.3775    1.7781 O   0  0  0  0  0  0  0  0  0  0  0  0
    4.3092    1.7480    1.0559 C   0  0  0  0  0  0  0  0  0  0  0  0
    4.6536    2.8777    2.0272 C   0  0  0  0  0  0  0  0  0  0  0  0
    4.8393    3.0929    0.5590 C   0  0  0  0  0  0  0  0  0  0  0  0
    5.2294    0.5663    1.0037 C   0  0  0  0  0  0  0  0  0  0  0  0
    5.8376    0.3466   -0.0347 O   0  0  0  0  0  0  0  0  0  0  0  0
    5.2349   -0.1698    2.1703 N   0  0  0  0  0  0  0  0  0  0  0  0
    5.9684   -1.3421    2.4392 C   0  0  0  0  0  0  0  0  0  0  0  0
    5.7175   -1.9892    3.6596 C   0  0  0  0  0  0  0  0  0  0  0  0
    6.3924   -3.1668    3.9888 C   0  0  0  0  0  0  0  0  0  0  0  0
    7.3253   -3.6909    3.1040 C   0  0  0  0  0  0  0  0  0  0  0  0
    7.5959   -3.0588    1.8974 C   0  0  0  0  0  0  0  0  0  0  0  0
    6.9158   -1.8834    1.5634 C   0  0  0  0  0  0  0  0  0  0  0  0
    7.9675   -4.8229    3.4173 F   0  0  0  0  0  0  0  0  0  0  0  0
   -3.8996   -2.6445    1.0322 H   0  0  0  0  0  0  0  0  0  0  0  0
   -5.2387   -3.6451    1.6297 H   0  0  0  0  0  0  0  0  0  0  0  0
   -5.3542   -1.8782    1.7636 H   0  0  0  0  0  0  0  0  0  0  0  0
   -3.6770   -1.7475   -1.6042 H   0  0  0  0  0  0  0  0  0  0  0  0
   -2.5904    2.3736   -3.9356 H   0  0  0  0  0  0  0  0  0  0  0  0
   -4.6194    3.7628   -3.5211 H   0  0  0  0  0  0  0  0  0  0  0  0
   -7.4673    1.3809   -0.9732 H   0  0  0  0  0  0  0  0  0  0  0  0
   -8.7112    0.6579    0.8542 H   0  0  0  0  0  0  0  0  0  0  0  0
   -9.3214   -0.1135   -0.6642 H   0  0  0  0  0  0  0  0  0  0  0  0
   -9.6367   -0.8469    0.9146 H   0  0  0  0  0  0  0  0  0  0  0  0
   -2.0006    0.5828   -0.3687 H   0  0  0  0  0  0  0  0  0  0  0  0
    0.0988    1.1381    0.7192 H   0  0  0  0  0  0  0  0  0  0  0  0
    2.1802    0.5878   -3.0310 H   0  0  0  0  0  0  0  0  0  0  0  0
    0.0488    0.0100   -4.1115 H   0  0  0  0  0  0  0  0  0  0  0  0
    3.3547    1.2281   -1.1523 H   0  0  0  0  0  0  0  0  0  0  0  0
    3.8361    3.3988    2.5175 H   0  0  0  0  0  0  0  0  0  0  0  0
    5.5425    2.7849    2.6410 H   0  0  0  0  0  0  0  0  0  0  0  0
    5.8521    3.1316    0.1715 H   0  0  0  0  0  0  0  0  0  0  0  0
    4.1532    3.7671    0.0577 H   0  0  0  0  0  0  0  0  0  0  0  0
    4.5870    0.1340    2.8921 H   0  0  0  0  0  0  0  0  0  0  0  0
    4.9861   -1.5962    4.3623 H   0  0  0  0  0  0  0  0  0  0  0  0
    6.1907   -3.6812    4.9223 H   0  0  0  0  0  0  0  0  0  0  0  0
    8.3288   -3.4829    1.2184 H   0  0  0  0  0  0  0  0  0  0  0  0
    7.1499   -1.4148    0.6123 H   0  0  0  0  0  0  0  0  0  0  0  0
  1  2  1  0
  2  3  1  0
  3  4  2  0
  4  5  1  0
  5  6  2  0
  6  7  1  0
  7  8  2  0
  8  9  1  0
  9 10  2  0
 10 11  1  0
 11 12  2  0
 12 13  1  0
 13 14  1  0
  6 15  1  0
 15 16  1  0
 16 17  2  0
 17 18  1  0
 18 19  2  0
 19 20  1  0
 20 21  2  0
 19 22  1  0
 22 23  1  0
 23 24  2  0
 23 25  1  0
 25 26  1  0
 26 27  1  0
 25 28  1  0
 28 29  2  0
 28 30  1  0
 30 31  1  0
 31 32  2  0
 32 33  1  0
 33 34  2  0
 34 35  1  0
 35 36  2  0
 34 37  1  0
 12  3  1  0
 10  5  1  0
 21 16  1  0
 27 25  1  0
 36 31  1  0
  1 38  1  0
  1 39  1  0
  1 40  1  0
  4 41  1  0
  7 42  1  0
  8 43  1  0
 11 44  1  0
 14 45  1  0
 14 46  1  0
 14 47  1  0
 17 48  1  0
 18 49  1  0
 20 50  1  0
 21 51  1  0
 22 52  1  0
 26 53  1  0
 26 54  1  0
 27 55  1  0
 27 56  1  0
 30 57  1  0
 32 58  1  0
 33 59  1  0
 35 60  1  0
 36 61  1  0
M  END
$$$$
