
     RDKit          3D

 63 67  0  0  0  0  0  0  0  0999 V2000
   -1.9719    0.8042   -2.4936 C   0  0  0  0  0  0  0  0  0  0  0  0
   -1.9722    0.4325   -1.0456 C   0  0  0  0  0  0  0  0  0  0  0  0
   -3.0845    0.2997   -0.2213 C   0  0  0  0  0  0  0  0  0  0  0  0
   -2.6104   -0.0438    1.0150 N   0  0  0  0  0  0  0  0  0  0  0  0
   -1.2400   -0.1587    1.0141 C   0  0  0  0  0  0  0  0  0  0  0  0
   -0.7871    0.1405   -0.2636 C   0  0  0  0  0  0  0  0  0  0  0  0
    0.5882    0.1262   -0.7929 C   0  0  0  0  0  0  0  0  0  0  0  0
    0.7835   -0.0800   -1.9930 O   0  0  0  0  0  0  0  0  0  0  0  0
    1.6714    0.3616    0.0605 N   0  0  0  0  0  0  0  0  0  0  0  0
    1.5634    0.5252    1.5058 C   0  0  0  0  0  0  0  0  0  0  0  0
    0.9433   -0.6922    2.1750 C   0  0  0  0  0  0  0  0  0  0  0  0
   -0.5644   -0.5524    2.2840 C   0  0  0  0  0  0  0  0  0  0  0  0
    3.0206    0.2479   -0.5112 C   0  0  0  0  0  0  0  0  0  0  0  0
    3.5644   -1.1913   -0.4511 C   0  0  1  0  0  0  0  0  0  0  0  0
    4.7081   -1.4766   -1.4611 C   0  0  0  0  0  0  0  0  0  0  0  0
    6.0408   -0.9078   -1.2737 N   0  0  0  0  0  0  0  0  0  0  0  0
    6.2267    0.5361   -1.3535 C   0  0  0  0  0  0  0  0  0  0  0  0
    6.7891    1.1255   -0.0499 C   0  0  0  0  0  0  0  0  0  0  0  0
    8.0141    0.5236    0.3886 O   0  0  0  0  0  0  0  0  0  0  0  0
    8.2342   -0.7901   -0.1435 C   0  0  0  0  0  0  0  0  0  0  0  0
    6.9304   -1.5826   -0.3283 C   0  0  0  0  0  0  0  0  0  0  0  0
    3.9657   -1.5132    0.8873 O   0  0  0  0  0  0  0  0  0  0  0  0
   -4.4756    0.4470   -0.4907 C   0  0  0  0  0  0  0  0  0  0  0  0
   -5.5255    0.3740    0.3448 C   0  0  0  0  0  0  0  0  0  0  0  0
   -6.9208    0.5605   -0.1033 C   0  0  0  0  0  0  0  0  0  0  0  0
   -7.7245    0.4252    1.0347 C   0  0  0  0  0  0  0  0  0  0  0  0
   -9.1011    0.5392    0.9992 C   0  0  0  0  0  0  0  0  0  0  0  0
   -9.6873    0.8009   -0.2401 C   0  0  0  0  0  0  0  0  0  0  0  0
   -8.8887    0.9373   -1.3849 C   0  0  0  0  0  0  0  0  0  0  0  0
   -7.4997    0.8197   -1.3337 C   0  0  0  0  0  0  0  0  0  0  0  0
   -9.4784    1.1881   -2.5613 F   0  0  0  0  0  0  0  0  0  0  0  0
   -6.9435    0.1676    2.1533 N   0  0  0  0  0  0  0  0  0  0  0  0
   -5.5976    0.1149    1.8320 C   0  0  0  0  0  0  0  0  0  0  0  0
   -4.6856   -0.1029    2.6073 O   0  0  0  0  0  0  0  0  0  0  0  0
   -1.1854    1.5354   -2.7066 H   0  0  0  0  0  0  0  0  0  0  0  0
   -1.8049   -0.0837   -3.1113 H   0  0  0  0  0  0  0  0  0  0  0  0
   -2.9180    1.2586   -2.8006 H   0  0  0  0  0  0  0  0  0  0  0  0
   -3.1858   -0.2046    1.8362 H   0  0  0  0  0  0  0  0  0  0  0  0
    2.5665    0.6888    1.9158 H   0  0  0  0  0  0  0  0  0  0  0  0
    0.9925    1.4396    1.7062 H   0  0  0  0  0  0  0  0  0  0  0  0
    1.3470   -0.7937    3.1897 H   0  0  0  0  0  0  0  0  0  0  0  0
    1.2030   -1.6121    1.6369 H   0  0  0  0  0  0  0  0  0  0  0  0
   -0.9833   -1.5004    2.6436 H   0  0  0  0  0  0  0  0  0  0  0  0
   -0.7965    0.2019    3.0478 H   0  0  0  0  0  0  0  0  0  0  0  0
    2.9827    0.5852   -1.5528 H   0  0  0  0  0  0  0  0  0  0  0  0
    3.6671    0.9447    0.0322 H   0  0  0  0  0  0  0  0  0  0  0  0
    2.7493   -1.8839   -0.6945 H   0  0  0  0  0  0  0  0  0  0  0  0
    4.3569   -1.1954   -2.4625 H   0  0  0  0  0  0  0  0  0  0  0  0
    4.8295   -2.5675   -1.5052 H   0  0  0  0  0  0  0  0  0  0  0  0
    5.3157    1.0628   -1.6490 H   0  0  0  0  0  0  0  0  0  0  0  0
    6.9525    0.7251   -2.1545 H   0  0  0  0  0  0  0  0  0  0  0  0
    6.0616    1.0186    0.7623 H   0  0  0  0  0  0  0  0  0  0  0  0
    6.9772    2.1968   -0.1742 H   0  0  0  0  0  0  0  0  0  0  0  0
    8.8988   -1.3167    0.5491 H   0  0  0  0  0  0  0  0  0  0  0  0
    8.7708   -0.6905   -1.0946 H   0  0  0  0  0  0  0  0  0  0  0  0
    6.4611   -1.6886    0.6527 H   0  0  0  0  0  0  0  0  0  0  0  0
    7.1687   -2.5861   -0.6973 H   0  0  0  0  0  0  0  0  0  0  0  0
    4.6609   -0.8801    1.1309 H   0  0  0  0  0  0  0  0  0  0  0  0
   -4.6970    0.6498   -1.5362 H   0  0  0  0  0  0  0  0  0  0  0  0
   -9.7079    0.4318    1.8909 H   0  0  0  0  0  0  0  0  0  0  0  0
  -10.7652    0.9013   -0.3316 H   0  0  0  0  0  0  0  0  0  0  0  0
   -6.9189    0.9312   -2.2409 H   0  0  0  0  0  0  0  0  0  0  0  0
   -7.2838    0.0260    3.0923 H   0  0  0  0  0  0  0  0  0  0  0  0
  1  2  1  0
  2  3  2  0
  3  4  1  0
  4  5  1  0
  5  6  2  0
  6  7  1  0
  7  8  2  0
  7  9  1  0
  9 10  1  0
 10 11  1  0
 11 12  1  0
  9 13  1  0
 13 14  1  0
 14 15  1  0
 15 16  1  0
 16 17  1  0
 17 18  1  0
 18 19  1  0
 19 20  1  0
 20 21  1  0
 14 22  1  0
  3 23  1  0
 23 24  2  0
 24 25  1  0
 25 26  1  0
 26 27  2  0
 27 28  1  0
 28 29  2  0
 29 30  1  0
 29 31  1  0
 26 32  1  0
 32 33  1  0
 33 34  2  0
  6  2  1  0
 12  5  1  0
 21 16  1  0
 33 24  1  0
 30 25  2  0
  1 35  1  0
  1 36  1  0
  1 37  1  0
  4 38  1  0
 10 39  1  0
 10 40  1  0
 11 41  1  0
 11 42  1  0
 12 43  1  0
 12 44  1  0
 13 45  1  0
 13 46  1  0
 14 47  1  6
 15 48  1  0
 15 49  1  0
 17 50  1  0
 17 51  1  0
 18 52  1  0
 18 53  1  0
 20 54  1  0
 20 55  1  0
 21 56  1  0
 21 57  1  0
 22 58  1  0
 23 59  1  0
 27 60  1  0
 28 61  1  0
 30 62  1  0
 32 63  1  0
M  END
$$$$
