
     RDKit          3D

 45 49  0  0  0  0  0  0  0  0999 V2000
    8.9496   -0.1180   -0.6496 N   0  0  0  0  0  0  0  0  0  0  0  0
    7.8433    0.1321   -0.4006 C   0  0  0  0  0  0  0  0  0  0  0  0
    6.4935    0.4577   -0.0659 C   0  0  0  0  0  0  0  0  0  0  0  0
    5.5415    0.5936   -1.0955 C   0  0  0  0  0  0  0  0  0  0  0  0
    4.2285    0.9711   -0.7731 C   0  0  0  0  0  0  0  0  0  0  0  0
    3.8197    1.1613    0.5590 C   0  0  0  0  0  0  0  0  0  0  0  0
    4.7936    0.9980    1.5676 C   0  0  0  0  0  0  0  0  0  0  0  0
    6.1227    0.6621    1.2634 C   0  0  0  0  0  0  0  0  0  0  0  0
    2.4511    1.6885    0.9109 C   0  0  0  0  0  0  0  0  0  0  0  0
    1.5754    0.9911    1.9247 C   0  0  0  0  0  0  0  0  0  0  0  0
    1.0928    1.1450    0.4969 C   0  0  0  0  0  0  0  0  0  0  0  0
    0.7203   -0.1067   -0.2057 C   0  0  0  0  0  0  0  0  0  0  0  0
    1.5434   -1.0439   -0.7065 C   0  0  0  0  0  0  0  0  0  0  0  0
    0.9102   -2.1907   -1.4223 C   0  0  0  0  0  0  0  0  0  0  0  0
   -0.3591   -2.3984   -1.5747 N   0  0  0  0  0  0  0  0  0  0  0  0
   -1.1804   -1.4719   -1.0090 C   0  0  0  0  0  0  0  0  0  0  0  0
   -2.5604   -1.4171   -0.9397 C   0  0  0  0  0  0  0  0  0  0  0  0
   -2.9337   -0.2589   -0.2021 C   0  0  0  0  0  0  0  0  0  0  0  0
   -1.7542    0.3726    0.1453 C   0  0  0  0  0  0  0  0  0  0  0  0
   -0.6767   -0.3548   -0.3391 N   0  0  0  0  0  0  0  0  0  0  0  0
   -4.3296    0.1835    0.1639 C   0  0  0  0  0  0  0  0  0  0  0  0
   -5.2674    0.3275   -1.0450 C   0  0  0  0  0  0  0  0  0  0  0  0
   -6.4588   -0.5742   -0.7424 C   0  0  0  0  0  0  0  0  0  0  0  0
   -5.9500   -1.5684    0.2014 N   0  0  0  0  0  0  0  0  0  0  0  0
   -5.0518   -0.8107    1.0844 C   0  0  0  0  0  0  0  0  0  0  0  0
    5.8134    0.4418   -2.1423 H   0  0  0  0  0  0  0  0  0  0  0  0
    3.5050    1.1248   -1.5863 H   0  0  0  0  0  0  0  0  0  0  0  0
    4.5134    1.1711    2.6038 H   0  0  0  0  0  0  0  0  0  0  0  0
    6.8532    0.5872    2.0788 H   0  0  0  0  0  0  0  0  0  0  0  0
    2.4567    2.7766    1.0140 H   0  0  0  0  0  0  0  0  0  0  0  0
    1.8508   -0.0028    2.2510 H   0  0  0  0  0  0  0  0  0  0  0  0
    1.0865    1.5941    2.6838 H   0  0  0  0  0  0  0  0  0  0  0  0
    0.4257    1.9754    0.2559 H   0  0  0  0  0  0  0  0  0  0  0  0
    2.6169   -1.0416   -0.6422 H   0  0  0  0  0  0  0  0  0  0  0  0
    1.6169   -2.9170   -1.8558 H   0  0  0  0  0  0  0  0  0  0  0  0
   -3.2245   -2.1572   -1.3689 H   0  0  0  0  0  0  0  0  0  0  0  0
   -1.5944    1.2708    0.7223 H   0  0  0  0  0  0  0  0  0  0  0  0
   -4.2532    1.1584    0.6651 H   0  0  0  0  0  0  0  0  0  0  0  0
   -5.5878    1.3684   -1.1692 H   0  0  0  0  0  0  0  0  0  0  0  0
   -4.7914    0.0262   -1.9846 H   0  0  0  0  0  0  0  0  0  0  0  0
   -7.2519    0.0235   -0.2769 H   0  0  0  0  0  0  0  0  0  0  0  0
   -6.8635   -1.0465   -1.6423 H   0  0  0  0  0  0  0  0  0  0  0  0
   -6.7064   -1.9894    0.7338 H   0  0  0  0  0  0  0  0  0  0  0  0
   -4.3804   -1.4777    1.6346 H   0  0  0  0  0  0  0  0  0  0  0  0
   -5.6484   -0.2568    1.8199 H   0  0  0  0  0  0  0  0  0  0  0  0
  1  2  3  0
  2  3  1  0
  3  4  2  0
  4  5  1  0
  5  6  2  0
  6  7  1  0
  7  8  2  0
  6  9  1  0
  9 10  1  0
 10 11  1  0
 11 12  1  0
 12 13  2  0
 13 14  1  0
 14 15  2  0
 15 16  1  0
 16 17  2  0
 17 18  1  0
 18 19  2  0
 19 20  1  0
 18 21  1  0
 21 22  1  0
 22 23  1  0
 23 24  1  0
 24 25  1  0
  8  3  1  0
 11  9  1  0
 20 12  1  0
 25 21  1  0
 20 16  1  0
  4 26  1  0
  5 27  1  0
  7 28  1  0
  8 29  1  0
  9 30  1  0
 10 31  1  0
 10 32  1  0
 11 33  1  0
 13 34  1  0
 14 35  1  0
 17 36  1  0
 19 37  1  0
 21 38  1  0
 22 39  1  0
 22 40  1  0
 23 41  1  0
 23 42  1  0
 24 43  1  0
 25 44  1  0
 25 45  1  0
M  END
$$$$
