
     RDKit          3D

 42 42  0  0  0  0  0  0  0  0999 V2000
   -2.5035   -2.4116    0.4137 B   0  0  0  0  0  0  0  0  0  0  0  0
   -2.1845   -0.9804   -0.1209 C   0  0  2  0  0  0  0  0  0  0  0  0
   -3.3793   -0.2997   -0.7446 C   0  0  0  0  0  0  0  0  0  0  0  0
   -4.5161   -0.1276    0.2080 C   0  0  0  0  0  0  0  0  0  0  0  0
   -5.6456    0.5640   -0.5380 C   0  0  0  0  0  0  0  0  0  0  0  0
   -4.1637    0.7479    1.3897 C   0  0  0  0  0  0  0  0  0  0  0  0
   -1.0702   -1.0649   -1.0418 N   0  0  0  0  0  0  0  0  0  0  0  0
    0.1661   -0.4175   -0.8052 C   0  0  0  0  0  0  0  0  0  0  0  0
    0.2992    0.2540    0.2439 O   0  0  0  0  0  0  0  0  0  0  0  0
    1.2718   -0.5203   -1.7529 C   0  0  0  0  0  0  0  0  0  0  0  0
    2.4487    0.2076   -1.3316 N   0  0  0  0  0  0  0  0  0  0  0  0
    3.1415   -0.0703   -0.1221 C   0  0  0  0  0  0  0  0  0  0  0  0
    2.6606   -1.0161    0.5841 O   0  0  0  0  0  0  0  0  0  0  0  0
    4.3288    0.6592    0.3149 C   0  0  0  0  0  0  0  0  0  0  0  0
    4.3143    1.3805    1.4909 C   0  0  0  0  0  0  0  0  0  0  0  0
    5.4046    2.0879    1.9508 C   0  0  0  0  0  0  0  0  0  0  0  0
    6.5740    2.0883    1.2177 C   0  0  0  0  0  0  0  0  0  0  0  0
    6.6070    1.3684    0.0327 C   0  0  0  0  0  0  0  0  0  0  0  0
    5.4949    0.6574   -0.4195 C   0  0  0  0  0  0  0  0  0  0  0  0
    8.0779    1.3563   -0.9134 Cl  0  0  0  0  0  0  0  0  0  0  0  0
    2.8310    1.3756    2.4146 Cl  0  0  0  0  0  0  0  0  0  0  0  0
   -2.2606   -2.7904    1.8071 O   0  0  0  0  0  0  0  0  0  0  0  0
   -2.6536   -3.5018   -0.5748 O   0  0  0  0  0  0  0  0  0  0  0  0
   -1.8443   -0.3147    0.7254 H   0  0  0  0  0  0  0  0  0  0  0  0
   -3.1177    0.6816   -1.1753 H   0  0  0  0  0  0  0  0  0  0  0  0
   -3.7360   -0.9291   -1.5864 H   0  0  0  0  0  0  0  0  0  0  0  0
   -4.9083   -1.1164    0.5333 H   0  0  0  0  0  0  0  0  0  0  0  0
   -5.6581    0.3260   -1.6016 H   0  0  0  0  0  0  0  0  0  0  0  0
   -5.5543    1.6667   -0.3893 H   0  0  0  0  0  0  0  0  0  0  0  0
   -6.6008    0.2680   -0.0206 H   0  0  0  0  0  0  0  0  0  0  0  0
   -3.5988    0.1810    2.1583 H   0  0  0  0  0  0  0  0  0  0  0  0
   -3.6014    1.6312    1.0187 H   0  0  0  0  0  0  0  0  0  0  0  0
   -5.0736    1.1380    1.8904 H   0  0  0  0  0  0  0  0  0  0  0  0
   -1.1402   -1.6211   -1.9374 H   0  0  0  0  0  0  0  0  0  0  0  0
    1.6108   -1.5841   -1.8677 H   0  0  0  0  0  0  0  0  0  0  0  0
    0.9685   -0.2093   -2.7720 H   0  0  0  0  0  0  0  0  0  0  0  0
    2.7994    0.9634   -1.9394 H   0  0  0  0  0  0  0  0  0  0  0  0
    5.3776    2.6589    2.8915 H   0  0  0  0  0  0  0  0  0  0  0  0
    7.4627    2.6291    1.5338 H   0  0  0  0  0  0  0  0  0  0  0  0
    5.5170    0.0969   -1.3401 H   0  0  0  0  0  0  0  0  0  0  0  0
   -2.3647   -2.0461    2.4254 H   0  0  0  0  0  0  0  0  0  0  0  0
   -1.7812   -3.9664   -0.7023 H   0  0  0  0  0  0  0  0  0  0  0  0
  1  2  1  0
  2  3  1  0
  3  4  1  0
  4  5  1  0
  4  6  1  0
  2  7  1  0
  7  8  1  0
  8  9  2  0
  8 10  1  0
 10 11  1  0
 11 12  1  0
 12 13  2  0
 12 14  1  0
 14 15  2  0
 15 16  1  0
 16 17  2  0
 17 18  1  0
 18 19  2  0
 18 20  1  0
 15 21  1  0
  1 22  1  0
  1 23  1  0
 19 14  1  0
  2 24  1  1
  3 25  1  0
  3 26  1  0
  4 27  1  0
  5 28  1  0
  5 29  1  0
  5 30  1  0
  6 31  1  0
  6 32  1  0
  6 33  1  0
  7 34  1  0
 10 35  1  0
 10 36  1  0
 11 37  1  0
 16 38  1  0
 17 39  1  0
 19 40  1  0
 22 41  1  0
 23 42  1  0
M  END
$$$$
