
     RDKit          3D

 66 68  0  0  0  0  0  0  0  0999 V2000
    9.1419    0.2413    0.4750 C   0  0  0  0  0  0  0  0  0  0  0  0
    8.2023    1.3049    0.4212 O   0  0  0  0  0  0  0  0  0  0  0  0
    6.8848    0.9822    0.2097 C   0  0  0  0  0  0  0  0  0  0  0  0
    5.9848    2.0642    0.1373 C   0  0  0  0  0  0  0  0  0  0  0  0
    4.6217    1.8193   -0.0767 C   0  0  0  0  0  0  0  0  0  0  0  0
    4.1385    0.5098   -0.2044 C   0  0  0  0  0  0  0  0  0  0  0  0
    5.0414   -0.5559   -0.1437 C   0  0  0  0  0  0  0  0  0  0  0  0
    6.4041   -0.3224    0.0656 C   0  0  0  0  0  0  0  0  0  0  0  0
    2.7074    0.2996   -0.4549 C   0  0  0  0  0  0  0  0  0  0  0  0
    1.9886   -0.6619    0.1440 C   0  0  0  0  0  0  0  0  0  0  0  0
    0.5364   -0.8138   -0.1623 C   0  0  0  0  0  0  0  0  0  0  0  0
   -0.0357   -0.0414   -0.9308 O   0  0  0  0  0  0  0  0  0  0  0  0
   -0.1992   -1.9497    0.5266 C   0  0  0  0  0  0  0  0  0  0  0  0
   -1.1550   -1.3993    1.5729 C   0  0  0  0  0  0  0  0  0  0  0  0
   -0.9181   -1.5458    2.7720 O   0  0  0  0  0  0  0  0  0  0  0  0
   -2.3663   -0.6571    1.1148 C   0  0  0  0  0  0  0  0  0  0  0  0
   -3.2741   -0.2271    2.0034 C   0  0  0  0  0  0  0  0  0  0  0  0
   -4.4937    0.5025    1.6300 C   0  0  0  0  0  0  0  0  0  0  0  0
   -4.5061    1.4714    0.6159 C   0  0  0  0  0  0  0  0  0  0  0  0
   -5.6827    2.1632    0.2965 C   0  0  0  0  0  0  0  0  0  0  0  0
   -6.8667    1.8920    1.0105 C   0  0  0  0  0  0  0  0  0  0  0  0
   -6.8488    0.9413    2.0349 C   0  0  0  0  0  0  0  0  0  0  0  0
   -5.6694    0.2571    2.3445 C   0  0  0  0  0  0  0  0  0  0  0  0
   -7.9758    2.6094    0.6367 O   0  0  0  0  0  0  0  0  0  0  0  0
   -9.1958    2.3359    1.3099 C   0  0  0  0  0  0  0  0  0  0  0  0
   -5.7784    3.1175   -0.6874 O   0  0  0  0  0  0  0  0  0  0  0  0
   -4.6072    3.4192   -1.4320 C   0  0  0  0  0  0  0  0  0  0  0  0
   -0.9208   -2.8590   -0.4820 C   0  0  0  0  0  0  0  0  0  0  0  0
    0.0539   -3.8303   -1.1429 C   0  0  0  0  0  0  0  0  0  0  0  0
   -0.5611   -4.7441   -2.2384 C   0  0  0  0  0  0  0  0  0  0  0  0
    0.7843   -4.6340   -2.9834 C   0  0  0  0  0  0  0  0  0  0  0  0
    0.9951   -3.2911   -2.2556 C   0  0  0  0  0  0  0  0  0  0  0  0
    6.5350    3.3143    0.2818 O   0  0  0  0  0  0  0  0  0  0  0  0
    5.6573    4.4304    0.2571 C   0  0  0  0  0  0  0  0  0  0  0  0
   10.1326    0.6771    0.6354 H   0  0  0  0  0  0  0  0  0  0  0  0
    9.1706   -0.3093   -0.4715 H   0  0  0  0  0  0  0  0  0  0  0  0
    8.9339   -0.4273    1.3167 H   0  0  0  0  0  0  0  0  0  0  0  0
    3.9128    2.6388   -0.1402 H   0  0  0  0  0  0  0  0  0  0  0  0
    4.7019   -1.5808   -0.2724 H   0  0  0  0  0  0  0  0  0  0  0  0
    7.0644   -1.1821    0.1059 H   0  0  0  0  0  0  0  0  0  0  0  0
    2.2378    0.9920   -1.1526 H   0  0  0  0  0  0  0  0  0  0  0  0
    2.4227   -1.3446    0.8649 H   0  0  0  0  0  0  0  0  0  0  0  0
    0.5283   -2.5628    1.0752 H   0  0  0  0  0  0  0  0  0  0  0  0
   -2.4754   -0.4912    0.0494 H   0  0  0  0  0  0  0  0  0  0  0  0
   -3.1444   -0.4289    3.0656 H   0  0  0  0  0  0  0  0  0  0  0  0
   -3.5819    1.6849    0.0892 H   0  0  0  0  0  0  0  0  0  0  0  0
   -7.7351    0.7088    2.6150 H   0  0  0  0  0  0  0  0  0  0  0  0
   -5.6835   -0.4778    3.1469 H   0  0  0  0  0  0  0  0  0  0  0  0
   -9.1223    2.5779    2.3749 H   0  0  0  0  0  0  0  0  0  0  0  0
   -9.9684    2.9784    0.8766 H   0  0  0  0  0  0  0  0  0  0  0  0
   -9.5065    1.2967    1.1597 H   0  0  0  0  0  0  0  0  0  0  0  0
   -4.8669    4.1880   -2.1661 H   0  0  0  0  0  0  0  0  0  0  0  0
   -3.8227    3.8283   -0.7867 H   0  0  0  0  0  0  0  0  0  0  0  0
   -4.2514    2.5418   -1.9822 H   0  0  0  0  0  0  0  0  0  0  0  0
   -1.4384   -2.2686   -1.2477 H   0  0  0  0  0  0  0  0  0  0  0  0
   -1.6919   -3.4412    0.0385 H   0  0  0  0  0  0  0  0  0  0  0  0
    0.5971   -4.4236   -0.3917 H   0  0  0  0  0  0  0  0  0  0  0  0
   -0.8414   -5.7501   -1.9145 H   0  0  0  0  0  0  0  0  0  0  0  0
   -1.4019   -4.2997   -2.7847 H   0  0  0  0  0  0  0  0  0  0  0  0
    1.5099   -5.4061   -2.7025 H   0  0  0  0  0  0  0  0  0  0  0  0
    0.7226   -4.5807   -4.0729 H   0  0  0  0  0  0  0  0  0  0  0  0
    2.0236   -3.0823   -1.9499 H   0  0  0  0  0  0  0  0  0  0  0  0
    0.6029   -2.4294   -2.8086 H   0  0  0  0  0  0  0  0  0  0  0  0
    5.1588    4.5189   -0.7139 H   0  0  0  0  0  0  0  0  0  0  0  0
    6.2593    5.3325    0.4040 H   0  0  0  0  0  0  0  0  0  0  0  0
    4.9302    4.3800    1.0745 H   0  0  0  0  0  0  0  0  0  0  0  0
  1  2  1  0
  2  3  1  0
  3  4  2  0
  4  5  1  0
  5  6  2  0
  6  7  1  0
  7  8  2  0
  6  9  1  0
  9 10  2  0
 10 11  1  0
 11 12  2  0
 11 13  1  0
 13 14  1  0
 14 15  2  0
 14 16  1  0
 16 17  2  0
 17 18  1  0
 18 19  2  0
 19 20  1  0
 20 21  2  0
 21 22  1  0
 22 23  2  0
 21 24  1  0
 24 25  1  0
 20 26  1  0
 26 27  1  0
 13 28  1  0
 28 29  1  0
 29 30  1  0
 30 31  1  0
 31 32  1  0
  4 33  1  0
 33 34  1  0
  8  3  1  0
 23 18  1  0
 32 29  1  0
  1 35  1  0
  1 36  1  0
  1 37  1  0
  5 38  1  0
  7 39  1  0
  8 40  1  0
  9 41  1  0
 10 42  1  0
 13 43  1  0
 16 44  1  0
 17 45  1  0
 19 46  1  0
 22 47  1  0
 23 48  1  0
 25 49  1  0
 25 50  1  0
 25 51  1  0
 27 52  1  0
 27 53  1  0
 27 54  1  0
 28 55  1  0
 28 56  1  0
 29 57  1  0
 30 58  1  0
 30 59  1  0
 31 60  1  0
 31 61  1  0
 32 62  1  0
 32 63  1  0
 34 64  1  0
 34 65  1  0
 34 66  1  0
M  END
$$$$
