
     RDKit          3D

 70 74  0  0  0  0  0  0  0  0999 V2000
  -11.7276    0.1990    3.4035 C   0  0  0  0  0  0  0  0  0  0  0  0
  -10.8469   -0.9094    3.5360 O   0  0  0  0  0  0  0  0  0  0  0  0
   -9.5519   -0.6826    2.9721 C   0  0  0  0  0  0  0  0  0  0  0  0
   -9.5460   -0.6399    1.4322 C   0  0  0  0  0  0  0  0  0  0  0  0
   -9.9314    0.6501    0.8340 N   0  0  0  0  0  0  0  0  0  0  0  0
   -8.9281    1.7085    0.9719 C   0  0  0  0  0  0  0  0  0  0  0  0
   -7.6908    1.4860    0.1460 C   0  0  0  0  0  0  0  0  0  0  0  0
   -6.4655    1.2234    0.7475 C   0  0  0  0  0  0  0  0  0  0  0  0
   -5.3198    0.9894    0.0692 N   0  0  0  0  0  0  0  0  0  0  0  0
   -5.3774    1.0165   -1.2837 C   0  0  0  0  0  0  0  0  0  0  0  0
   -6.5539    1.2889   -1.9762 C   0  0  0  0  0  0  0  0  0  0  0  0
   -7.7209    1.5243   -1.2508 C   0  0  0  0  0  0  0  0  0  0  0  0
   -4.1156    0.7496   -1.9847 C   0  0  0  0  0  0  0  0  0  0  0  0
   -3.6654    1.2565   -3.1908 C   0  0  0  0  0  0  0  0  0  0  0  0
   -2.3868    0.7546   -3.5678 C   0  0  0  0  0  0  0  0  0  0  0  0
   -1.7233    1.0986   -4.7054 N   0  0  0  0  0  0  0  0  0  0  0  0
   -0.5254    0.5086   -4.8837 C   0  0  0  0  0  0  0  0  0  0  0  0
    0.0593   -0.3925   -4.0143 C   0  0  0  0  0  0  0  0  0  0  0  0
   -0.6163   -0.7229   -2.8411 C   0  0  0  0  0  0  0  0  0  0  0  0
   -1.8783   -0.1428   -2.6314 C   0  0  0  0  0  0  0  0  0  0  0  0
   -2.9765   -0.3530   -1.3279 S   0  0  0  0  0  0  0  0  0  0  0  0
   -0.1166   -1.6420   -1.9378 O   0  0  0  0  0  0  0  0  0  0  0  0
    1.1960   -1.4838   -1.5649 C   0  0  0  0  0  0  0  0  0  0  0  0
    2.0515   -2.5762   -1.6733 C   0  0  0  0  0  0  0  0  0  0  0  0
    3.3904   -2.4756   -1.3003 C   0  0  0  0  0  0  0  0  0  0  0  0
    3.8938   -1.2629   -0.8156 C   0  0  0  0  0  0  0  0  0  0  0  0
    3.0169   -0.1850   -0.6464 C   0  0  0  0  0  0  0  0  0  0  0  0
    1.6714   -0.2913   -1.0199 C   0  0  0  0  0  0  0  0  0  0  0  0
    5.2607   -1.2225   -0.4520 N   0  0  0  0  0  0  0  0  0  0  0  0
    6.1385   -0.1294   -0.4100 C   0  0  0  0  0  0  0  0  0  0  0  0
    5.9396    1.3204   -1.2149 S   0  0  0  0  0  0  0  0  0  0  0  0
    7.2527   -0.4756    0.3790 N   0  0  0  0  0  0  0  0  0  0  0  0
    8.4186    0.2448    0.6838 C   0  0  0  0  0  0  0  0  0  0  0  0
    8.7472    1.3132    0.1825 O   0  0  0  0  0  0  0  0  0  0  0  0
    9.2653   -0.4666    1.7364 C   0  0  0  0  0  0  0  0  0  0  0  0
   10.7513   -0.1940    1.6587 C   0  0  0  0  0  0  0  0  0  0  0  0
   11.4527   -0.3278    0.4484 C   0  0  0  0  0  0  0  0  0  0  0  0
   12.8302   -0.1033    0.4003 C   0  0  0  0  0  0  0  0  0  0  0  0
   13.5114    0.2406    1.5612 C   0  0  0  0  0  0  0  0  0  0  0  0
   12.8414    0.3650    2.7721 C   0  0  0  0  0  0  0  0  0  0  0  0
   11.4631    0.1447    2.8222 C   0  0  0  0  0  0  0  0  0  0  0  0
   14.8337    0.4484    1.5128 F   0  0  0  0  0  0  0  0  0  0  0  0
    1.6019   -3.7419   -2.1623 F   0  0  0  0  0  0  0  0  0  0  0  0
  -12.5990    0.0146    4.0380 H   0  0  0  0  0  0  0  0  0  0  0  0
  -12.0805    0.2919    2.3730 H   0  0  0  0  0  0  0  0  0  0  0  0
  -11.2508    1.1261    3.7355 H   0  0  0  0  0  0  0  0  0  0  0  0
   -8.9420   -1.5394    3.2825 H   0  0  0  0  0  0  0  0  0  0  0  0
   -9.0941    0.2018    3.4277 H   0  0  0  0  0  0  0  0  0  0  0  0
  -10.2619   -1.3872    1.0692 H   0  0  0  0  0  0  0  0  0  0  0  0
   -8.5606   -0.9463    1.0631 H   0  0  0  0  0  0  0  0  0  0  0  0
  -10.1256    0.5019   -0.1556 H   0  0  0  0  0  0  0  0  0  0  0  0
   -8.6719    1.8724    2.0246 H   0  0  0  0  0  0  0  0  0  0  0  0
   -9.3842    2.6509    0.6440 H   0  0  0  0  0  0  0  0  0  0  0  0
   -6.3615    1.1843    1.8291 H   0  0  0  0  0  0  0  0  0  0  0  0
   -6.5794    1.3024   -3.0608 H   0  0  0  0  0  0  0  0  0  0  0  0
   -8.6493    1.7311   -1.7785 H   0  0  0  0  0  0  0  0  0  0  0  0
   -4.2127    1.9755   -3.7857 H   0  0  0  0  0  0  0  0  0  0  0  0
   -0.0122    0.7921   -5.7997 H   0  0  0  0  0  0  0  0  0  0  0  0
    1.0242   -0.8281   -4.2544 H   0  0  0  0  0  0  0  0  0  0  0  0
    4.0226   -3.3490   -1.4236 H   0  0  0  0  0  0  0  0  0  0  0  0
    3.3426    0.7492   -0.1956 H   0  0  0  0  0  0  0  0  0  0  0  0
    1.0069    0.5570   -0.8710 H   0  0  0  0  0  0  0  0  0  0  0  0
    5.7273   -2.1201   -0.4836 H   0  0  0  0  0  0  0  0  0  0  0  0
    7.0912   -1.2885    0.9542 H   0  0  0  0  0  0  0  0  0  0  0  0
    9.1263   -1.5534    1.6633 H   0  0  0  0  0  0  0  0  0  0  0  0
    8.8713   -0.1519    2.7126 H   0  0  0  0  0  0  0  0  0  0  0  0
   10.9324   -0.5865   -0.4715 H   0  0  0  0  0  0  0  0  0  0  0  0
   13.3736   -0.1891   -0.5362 H   0  0  0  0  0  0  0  0  0  0  0  0
   13.3947    0.6326    3.6673 H   0  0  0  0  0  0  0  0  0  0  0  0
   10.9490    0.2456    3.7763 H   0  0  0  0  0  0  0  0  0  0  0  0
  1  2  1  0
  2  3  1  0
  3  4  1  0
  4  5  1  0
  5  6  1  0
  6  7  1  0
  7  8  2  0
  8  9  1  0
  9 10  2  0
 10 11  1  0
 11 12  2  0
 10 13  1  0
 13 14  2  0
 14 15  1  0
 15 16  2  0
 16 17  1  0
 17 18  2  0
 18 19  1  0
 19 20  2  0
 20 21  1  0
 19 22  1  0
 22 23  1  0
 23 24  2  0
 24 25  1  0
 25 26  2  0
 26 27  1  0
 27 28  2  0
 26 29  1  0
 29 30  1  0
 30 31  2  0
 30 32  1  0
 32 33  1  0
 33 34  2  0
 33 35  1  0
 35 36  1  0
 36 37  2  0
 37 38  1  0
 38 39  2  0
 39 40  1  0
 40 41  2  0
 39 42  1  0
 24 43  1  0
 12  7  1  0
 21 13  1  0
 20 15  1  0
 28 23  1  0
 41 36  1  0
  1 44  1  0
  1 45  1  0
  1 46  1  0
  3 47  1  0
  3 48  1  0
  4 49  1  0
  4 50  1  0
  5 51  1  0
  6 52  1  0
  6 53  1  0
  8 54  1  0
 11 55  1  0
 12 56  1  0
 14 57  1  0
 17 58  1  0
 18 59  1  0
 25 60  1  0
 27 61  1  0
 28 62  1  0
 29 63  1  0
 32 64  1  0
 35 65  1  0
 35 66  1  0
 37 67  1  0
 38 68  1  0
 40 69  1  0
 41 70  1  0
M  END
$$$$
