
     RDKit          3D

 24 25  0  0  0  0  0  0  0  0999 V2000
    3.0335   -1.3351    0.3501 C   0  0  0  0  0  0  0  0  0  0  0  0
    2.1387   -0.2144    0.2102 N   0  0  0  0  0  0  0  0  0  0  0  0
    2.4967    1.1075    0.1769 C   0  0  0  0  0  0  0  0  0  0  0  0
    1.4463    1.8923    0.0394 N   0  0  0  0  0  0  0  0  0  0  0  0
    0.3884    1.0359   -0.0160 C   0  0  0  0  0  0  0  0  0  0  0  0
    0.7800   -0.2643    0.0860 C   0  0  0  0  0  0  0  0  0  0  0  0
   -0.1291   -1.3562    0.0564 C   0  0  0  0  0  0  0  0  0  0  0  0
    0.2342   -2.5249    0.1492 O   0  0  0  0  0  0  0  0  0  0  0  0
   -1.4588   -0.9494   -0.0881 N   0  0  0  0  0  0  0  0  0  0  0  0
   -2.4854   -1.9721   -0.1322 C   0  0  0  0  0  0  0  0  0  0  0  0
   -1.9037    0.3851   -0.1969 C   0  0  0  0  0  0  0  0  0  0  0  0
   -3.1042    0.6450   -0.3219 O   0  0  0  0  0  0  0  0  0  0  0  0
   -0.9325    1.3861   -0.1568 N   0  0  0  0  0  0  0  0  0  0  0  0
   -1.3068    2.7845   -0.2623 C   0  0  0  0  0  0  0  0  0  0  0  0
    2.7664   -1.8826    1.2574 H   0  0  0  0  0  0  0  0  0  0  0  0
    2.9332   -1.9728   -0.5317 H   0  0  0  0  0  0  0  0  0  0  0  0
    4.0619   -0.9731    0.4277 H   0  0  0  0  0  0  0  0  0  0  0  0
    3.5239    1.4412    0.2558 H   0  0  0  0  0  0  0  0  0  0  0  0
   -3.1925   -1.8018    0.6863 H   0  0  0  0  0  0  0  0  0  0  0  0
   -2.0774   -2.9820   -0.0433 H   0  0  0  0  0  0  0  0  0  0  0  0
   -3.0279   -1.8909   -1.0799 H   0  0  0  0  0  0  0  0  0  0  0  0
   -0.8158    3.2208   -1.1379 H   0  0  0  0  0  0  0  0  0  0  0  0
   -2.3873    2.9106   -0.3694 H   0  0  0  0  0  0  0  0  0  0  0  0
   -0.9817    3.3105    0.6409 H   0  0  0  0  0  0  0  0  0  0  0  0
  1  2  1  0
  2  3  1  0
  3  4  2  0
  4  5  1  0
  5  6  2  0
  6  7  1  0
  7  8  2  0
  7  9  1  0
  9 10  1  0
  9 11  1  0
 11 12  2  0
 11 13  1  0
 13 14  1  0
  6  2  1  0
 13  5  1  0
  1 15  1  0
  1 16  1  0
  1 17  1  0
  3 18  1  0
 10 19  1  0
 10 20  1  0
 10 21  1  0
 14 22  1  0
 14 23  1  0
 14 24  1  0
M  END
$$$$
