
     RDKit          3D

 48 50  0  0  0  0  0  0  0  0999 V2000
  -10.4040    1.1655   -1.0003 H   0  0  0  0  0  0  0  0  0  0  0  0
   -9.9384    0.7745   -0.0926 C   0  0  0  0  0  0  0  0  0  0  0  0
   -9.9624    1.5308    0.6966 H   0  0  0  0  0  0  0  0  0  0  0  0
  -10.4743   -0.1173    0.2427 H   0  0  0  0  0  0  0  0  0  0  0  0
   -8.5826    0.4070   -0.3952 N   0  0  0  0  0  0  0  0  0  0  0  0
   -7.6147    0.2884    0.5799 C   0  0  0  0  0  0  0  0  0  0  0  0
   -7.7844    0.5796    1.7581 O   0  0  0  0  0  0  0  0  0  0  0  0
   -6.3045   -0.2459    0.0843 C   0  0  0  0  0  0  0  0  0  0  0  0
   -6.2431   -0.5548   -1.2445 N   0  0  0  0  0  0  0  0  0  0  0  0
   -5.0679   -1.0437   -1.6947 C   0  0  0  0  0  0  0  0  0  0  0  0
   -3.9541   -1.2290   -0.8944 C   0  0  0  0  0  0  0  0  0  0  0  0
   -4.0511   -0.8834    0.4520 C   0  0  0  0  0  0  0  0  0  0  0  0
   -5.2473   -0.4009    0.9660 C   0  0  0  0  0  0  0  0  0  0  0  0
   -3.0132   -1.0648    1.3378 O   0  0  0  0  0  0  0  0  0  0  0  0
   -1.7837   -0.5834    0.9534 C   0  0  0  0  0  0  0  0  0  0  0  0
   -1.5912    0.7452    0.5776 C   0  0  0  0  0  0  0  0  0  0  0  0
   -0.3113    1.1876    0.2303 C   0  0  0  0  0  0  0  0  0  0  0  0
    0.7853    0.3140    0.2695 C   0  0  0  0  0  0  0  0  0  0  0  0
    0.5785   -1.0105    0.6633 C   0  0  0  0  0  0  0  0  0  0  0  0
   -0.7004   -1.4554    1.0162 C   0  0  0  0  0  0  0  0  0  0  0  0
    2.0390    0.8411   -0.1067 N   0  0  0  0  0  0  0  0  0  0  0  0
    3.2740    0.2104   -0.0529 C   0  0  0  0  0  0  0  0  0  0  0  0
    3.4754   -0.9069    0.4022 O   0  0  0  0  0  0  0  0  0  0  0  0
    4.2547    1.0293   -0.5982 N   0  0  0  0  0  0  0  0  0  0  0  0
    5.6441    0.7921   -0.6410 C   0  0  0  0  0  0  0  0  0  0  0  0
    6.2832   -0.2467    0.0420 C   0  0  0  0  0  0  0  0  0  0  0  0
    7.6814   -0.4287   -0.0361 C   0  0  0  0  0  0  0  0  0  0  0  0
    8.4314    0.4599   -0.8127 C   0  0  0  0  0  0  0  0  0  0  0  0
    7.8023    1.5067   -1.4899 C   0  0  0  0  0  0  0  0  0  0  0  0
    6.4184    1.6727   -1.4019 C   0  0  0  0  0  0  0  0  0  0  0  0
   10.1440    0.3231   -0.9753 Cl  0  0  0  0  0  0  0  0  0  0  0  0
    8.3342   -1.5609    0.7104 C   0  0  0  0  0  0  0  0  0  0  0  0
    8.9791   -2.4359   -0.1101 F   0  0  0  0  0  0  0  0  0  0  0  0
    9.2566   -1.1354    1.6177 F   0  0  0  0  0  0  0  0  0  0  0  0
    7.4539   -2.3195    1.4247 F   0  0  0  0  0  0  0  0  0  0  0  0
   -8.3404    0.0334   -1.3097 H   0  0  0  0  0  0  0  0  0  0  0  0
   -5.0427   -1.2965   -2.7515 H   0  0  0  0  0  0  0  0  0  0  0  0
   -3.0419   -1.6414   -1.3111 H   0  0  0  0  0  0  0  0  0  0  0  0
   -5.3495   -0.1497    2.0160 H   0  0  0  0  0  0  0  0  0  0  0  0
   -2.4246    1.4421    0.5621 H   0  0  0  0  0  0  0  0  0  0  0  0
   -0.1871    2.2265   -0.0630 H   0  0  0  0  0  0  0  0  0  0  0  0
    1.3922   -1.7274    0.7118 H   0  0  0  0  0  0  0  0  0  0  0  0
   -0.8442   -2.4846    1.3346 H   0  0  0  0  0  0  0  0  0  0  0  0
    2.0512    1.8246   -0.3270 H   0  0  0  0  0  0  0  0  0  0  0  0
    3.9219    1.8075   -1.1462 H   0  0  0  0  0  0  0  0  0  0  0  0
    5.7116   -0.9371    0.6591 H   0  0  0  0  0  0  0  0  0  0  0  0
    8.3860    2.2002   -2.0916 H   0  0  0  0  0  0  0  0  0  0  0  0
    5.9606    2.4978   -1.9418 H   0  0  0  0  0  0  0  0  0  0  0  0
  1  2  1  0
  2  3  1  0
  2  4  1  0
  2  5  1  0
  5  6  1  0
  6  7  2  0
  6  8  1  0
  8  9  2  0
  9 10  1  0
 10 11  2  0
 11 12  1  0
 12 13  2  0
 12 14  1  0
 14 15  1  0
 15 16  2  0
 16 17  1  0
 17 18  2  0
 18 19  1  0
 19 20  2  0
 18 21  1  0
 21 22  1  0
 22 23  2  0
 22 24  1  0
 24 25  1  0
 25 26  2  0
 26 27  1  0
 27 28  2  0
 28 29  1  0
 29 30  2  0
 28 31  1  0
 27 32  1  0
 32 33  1  0
 32 34  1  0
 32 35  1  0
 13  8  1  0
 20 15  1  0
 30 25  1  0
  5 36  1  0
 10 37  1  0
 11 38  1  0
 13 39  1  0
 16 40  1  0
 17 41  1  0
 19 42  1  0
 20 43  1  0
 21 44  1  0
 24 45  1  0
 26 46  1  0
 29 47  1  0
 30 48  1  0
M  ISO  3   1   2   3   2   4   2
M  END
$$$$
