
     RDKit          3D

 31 33  0  0  0  0  0  0  0  0999 V2000
   -3.8848   -0.7638    1.5413 C   0  0  0  0  0  0  0  0  0  0  0  0
   -3.2701   -0.4604    0.1721 C   0  0  0  0  0  0  0  0  0  0  0  0
   -1.7733   -0.1993    0.2407 C   0  0  0  0  0  0  0  0  0  0  0  0
   -0.9047   -0.9563   -0.5664 C   0  0  0  0  0  0  0  0  0  0  0  0
    0.4694   -0.6916   -0.4940 C   0  0  0  0  0  0  0  0  0  0  0  0
    1.0076    0.2876    0.3369 C   0  0  0  0  0  0  0  0  0  0  0  0
    0.1297    1.0464    1.1348 C   0  0  0  0  0  0  0  0  0  0  0  0
   -1.2478    0.7974    1.0750 C   0  0  0  0  0  0  0  0  0  0  0  0
    2.4270    0.2759    0.1522 C   0  0  0  0  0  0  0  0  0  0  0  0
    2.7175   -0.7102   -0.7904 C   0  0  0  0  0  0  0  0  0  0  0  0
    1.5197   -1.2742   -1.1637 N   0  0  0  0  0  0  0  0  0  0  0  0
    4.0206   -0.9967   -1.2149 C   0  0  0  0  0  0  0  0  0  0  0  0
    5.0607   -0.2485   -0.6548 C   0  0  0  0  0  0  0  0  0  0  0  0
    4.7977    0.7421    0.2882 C   0  0  0  0  0  0  0  0  0  0  0  0
    3.4919    1.0187    0.7032 C   0  0  0  0  0  0  0  0  0  0  0  0
    6.1045    1.6444    0.9568 Cl  0  0  0  0  0  0  0  0  0  0  0  0
   -3.9974    0.6554   -0.5560 C   0  0  0  0  0  0  0  0  0  0  0  0
   -4.1667    0.7260   -1.7644 O   0  0  0  0  0  0  0  0  0  0  0  0
   -4.4350    1.6511    0.2404 O   0  0  0  0  0  0  0  0  0  0  0  0
   -3.3976   -1.6297    2.0030 H   0  0  0  0  0  0  0  0  0  0  0  0
   -4.9525   -0.9890    1.4412 H   0  0  0  0  0  0  0  0  0  0  0  0
   -3.7956    0.0768    2.2377 H   0  0  0  0  0  0  0  0  0  0  0  0
   -3.4446   -1.3613   -0.4330 H   0  0  0  0  0  0  0  0  0  0  0  0
   -1.2848   -1.7247   -1.2337 H   0  0  0  0  0  0  0  0  0  0  0  0
    0.5135    1.8229    1.7900 H   0  0  0  0  0  0  0  0  0  0  0  0
   -1.9079    1.4048    1.6921 H   0  0  0  0  0  0  0  0  0  0  0  0
    1.4230   -2.0169   -1.8402 H   0  0  0  0  0  0  0  0  0  0  0  0
    4.2237   -1.7684   -1.9506 H   0  0  0  0  0  0  0  0  0  0  0  0
    6.0840   -0.4475   -0.9643 H   0  0  0  0  0  0  0  0  0  0  0  0
    3.2960    1.7926    1.4383 H   0  0  0  0  0  0  0  0  0  0  0  0
   -4.8236    2.2962   -0.3874 H   0  0  0  0  0  0  0  0  0  0  0  0
  1  2  1  0
  2  3  1  0
  3  4  2  0
  4  5  1  0
  5  6  2  0
  6  7  1  0
  7  8  2  0
  6  9  1  0
  9 10  2  0
 10 11  1  0
 10 12  1  0
 12 13  2  0
 13 14  1  0
 14 15  2  0
 14 16  1  0
  2 17  1  0
 17 18  2  0
 17 19  1  0
  8  3  1  0
 11  5  1  0
 15  9  1  0
  1 20  1  0
  1 21  1  0
  1 22  1  0
  2 23  1  0
  4 24  1  0
  7 25  1  0
  8 26  1  0
 11 27  1  0
 12 28  1  0
 13 29  1  0
 15 30  1  0
 19 31  1  0
M  END
$$$$
