
     RDKit          3D

 81 85  0  0  0  0  0  0  0  0999 V2000
    5.2675   -0.6183   -2.2263 C   0  0  0  0  0  0  0  0  0  0  0  0
    4.8992    0.6269   -1.4652 C   0  0  0  0  0  0  0  0  0  0  0  0
    4.8838    1.8150   -2.0953 C   0  0  0  0  0  0  0  0  0  0  0  0
    4.5850    0.5240    0.0182 C   0  0  2  0  0  0  0  0  0  0  0  0
    5.7625   -0.0914    0.8361 C   0  0  0  0  0  0  0  0  0  0  0  0
    5.1605   -1.2427    1.6571 C   0  0  0  0  0  0  0  0  0  0  0  0
    3.6966   -0.8333    1.8334 C   0  0  1  0  0  0  0  0  0  0  0  0
    3.3626   -0.3579    0.3965 C   0  0  1  0  0  0  0  0  0  0  0  0
    1.9297    0.2188    0.3322 C   0  0  1  0  0  0  0  0  0  0  0  0
    1.5725    0.8534   -1.0245 C   0  0  0  0  0  0  0  0  0  0  0  0
    0.1133    1.3406   -1.1426 C   0  0  0  0  0  0  0  0  0  0  0  0
   -0.9605    0.3615   -0.5885 C   0  0  2  0  0  0  0  0  0  0  0  0
   -2.4727    0.8299   -0.8055 C   0  0  1  0  0  0  0  0  0  0  0  0
   -2.7616    0.8861   -2.3371 C   0  0  0  0  0  0  0  0  0  0  0  0
   -4.2372    1.0765   -2.6910 C   0  0  0  0  0  0  0  0  0  0  0  0
   -5.1373    0.0074   -2.0576 C   0  0  1  0  0  0  0  0  0  0  0  0
   -4.9576   -0.1246   -0.5169 C   0  0  0  0  0  0  0  0  0  0  0  0
   -3.4206   -0.2733   -0.2068 C   0  0  2  0  0  0  0  0  0  0  0  0
   -3.0899   -0.5569    1.2683 C   0  0  0  0  0  0  0  0  0  0  0  0
   -1.6541   -1.0803    1.4184 C   0  0  0  0  0  0  0  0  0  0  0  0
   -0.5700   -0.1303    0.8584 C   0  0  1  0  0  0  0  0  0  0  0  0
    0.8651   -0.8675    0.7536 C   0  0  2  0  0  0  0  0  0  0  0  0
    1.2702   -1.5694    2.0990 C   0  0  0  0  0  0  0  0  0  0  0  0
    2.7574   -1.9844    2.2074 C   0  0  0  0  0  0  0  0  0  0  0  0
    0.8430   -2.0269   -0.3053 C   0  0  0  0  0  0  0  0  0  0  0  0
   -0.4791    1.0645    1.8663 C   0  0  0  0  0  0  0  0  0  0  0  0
   -5.6890   -1.4249   -0.0695 C   0  0  0  0  0  0  0  0  0  0  0  0
   -5.6470    1.0370    0.2288 C   0  0  0  0  0  0  0  0  0  0  0  0
   -6.4790    0.3287   -2.4227 O   0  0  0  0  0  0  0  0  0  0  0  0
   -2.7157    2.2442   -0.2398 C   0  0  0  0  0  0  0  0  0  0  0  0
    3.6197    0.2619    2.9263 C   0  0  0  0  0  0  0  0  0  0  0  0
    5.2695   -0.4477   -3.3154 H   0  0  0  0  0  0  0  0  0  0  0  0
    4.5581   -1.4318   -2.0341 H   0  0  0  0  0  0  0  0  0  0  0  0
    6.2738   -0.9596   -1.9453 H   0  0  0  0  0  0  0  0  0  0  0  0
    4.6370    2.7315   -1.5723 H   0  0  0  0  0  0  0  0  0  0  0  0
    5.1090    1.9054   -3.1511 H   0  0  0  0  0  0  0  0  0  0  0  0
    4.4136    1.5376    0.4099 H   0  0  0  0  0  0  0  0  0  0  0  0
    6.6028   -0.4403    0.2207 H   0  0  0  0  0  0  0  0  0  0  0  0
    6.1687    0.6692    1.5166 H   0  0  0  0  0  0  0  0  0  0  0  0
    5.2441   -2.1758    1.0824 H   0  0  0  0  0  0  0  0  0  0  0  0
    5.6925   -1.3828    2.6036 H   0  0  0  0  0  0  0  0  0  0  0  0
    3.3887   -1.2350   -0.2639 H   0  0  0  0  0  0  0  0  0  0  0  0
    1.9085    1.0390    1.0582 H   0  0  0  0  0  0  0  0  0  0  0  0
    2.2095    1.7301   -1.1864 H   0  0  0  0  0  0  0  0  0  0  0  0
    1.7950    0.1643   -1.8490 H   0  0  0  0  0  0  0  0  0  0  0  0
    0.0436    2.3113   -0.6450 H   0  0  0  0  0  0  0  0  0  0  0  0
   -0.0760    1.5403   -2.2025 H   0  0  0  0  0  0  0  0  0  0  0  0
   -0.8884   -0.5291   -1.2299 H   0  0  0  0  0  0  0  0  0  0  0  0
   -2.4228   -0.0491   -2.8091 H   0  0  0  0  0  0  0  0  0  0  0  0
   -2.1969    1.6979   -2.8096 H   0  0  0  0  0  0  0  0  0  0  0  0
   -4.5809    2.0807   -2.4120 H   0  0  0  0  0  0  0  0  0  0  0  0
   -4.3536    1.0347   -3.7847 H   0  0  0  0  0  0  0  0  0  0  0  0
   -4.9107   -0.9516   -2.5443 H   0  0  0  0  0  0  0  0  0  0  0  0
   -3.1388   -1.2043   -0.7368 H   0  0  0  0  0  0  0  0  0  0  0  0
   -3.2512    0.3297    1.8897 H   0  0  0  0  0  0  0  0  0  0  0  0
   -3.7470   -1.3333    1.6721 H   0  0  0  0  0  0  0  0  0  0  0  0
   -1.4713   -1.2719    2.4852 H   0  0  0  0  0  0  0  0  0  0  0  0
   -1.6159   -2.0585    0.9257 H   0  0  0  0  0  0  0  0  0  0  0  0
    1.0463   -0.9419    2.9611 H   0  0  0  0  0  0  0  0  0  0  0  0
    0.6647   -2.4746    2.2446 H   0  0  0  0  0  0  0  0  0  0  0  0
    2.9634   -2.3285    3.2294 H   0  0  0  0  0  0  0  0  0  0  0  0
    2.9477   -2.8519    1.5594 H   0  0  0  0  0  0  0  0  0  0  0  0
    1.7157   -2.6841   -0.2193 H   0  0  0  0  0  0  0  0  0  0  0  0
    0.8511   -1.6654   -1.3420 H   0  0  0  0  0  0  0  0  0  0  0  0
   -0.0332   -2.6747   -0.1897 H   0  0  0  0  0  0  0  0  0  0  0  0
   -1.4537    1.3637    2.2602 H   0  0  0  0  0  0  0  0  0  0  0  0
    0.1124    0.8175    2.7566 H   0  0  0  0  0  0  0  0  0  0  0  0
   -0.0312    1.9654    1.4345 H   0  0  0  0  0  0  0  0  0  0  0  0
   -5.1681   -2.3192   -0.4379 H   0  0  0  0  0  0  0  0  0  0  0  0
   -6.7242   -1.4703   -0.4341 H   0  0  0  0  0  0  0  0  0  0  0  0
   -5.7498   -1.4958    1.0227 H   0  0  0  0  0  0  0  0  0  0  0  0
   -6.6594    0.7620    0.5637 H   0  0  0  0  0  0  0  0  0  0  0  0
   -5.7742    1.9270   -0.4033 H   0  0  0  0  0  0  0  0  0  0  0  0
   -5.0910    1.3366    1.1253 H   0  0  0  0  0  0  0  0  0  0  0  0
   -7.0644   -0.3890   -2.1447 H   0  0  0  0  0  0  0  0  0  0  0  0
   -2.0321    2.9734   -0.6923 H   0  0  0  0  0  0  0  0  0  0  0  0
   -2.5957    2.3029    0.8419 H   0  0  0  0  0  0  0  0  0  0  0  0
   -3.7171    2.6182   -0.4590 H   0  0  0  0  0  0  0  0  0  0  0  0
    4.0707   -0.1038    3.8599 H   0  0  0  0  0  0  0  0  0  0  0  0
    4.1515    1.1791    2.6486 H   0  0  0  0  0  0  0  0  0  0  0  0
    2.5928    0.5583    3.1639 H   0  0  0  0  0  0  0  0  0  0  0  0
  1  2  1  0
  2  3  2  3
  2  4  1  0
  4  5  1  0
  5  6  1  0
  6  7  1  0
  7  8  1  0
  8  9  1  0
  9 10  1  0
 10 11  1  0
 11 12  1  0
 12 13  1  0
 13 14  1  0
 14 15  1  0
 15 16  1  0
 16 17  1  0
 17 18  1  0
 18 19  1  0
 19 20  1  0
 20 21  1  0
 21 22  1  0
 22 23  1  0
 23 24  1  0
 22 25  1  6
 21 26  1  1
 17 27  1  0
 17 28  1  0
 16 29  1  0
 13 30  1  1
  7 31  1  1
  8  4  1  0
 24  7  1  0
 22  9  1  0
 21 12  1  0
 18 13  1  0
  1 32  1  0
  1 33  1  0
  1 34  1  0
  3 35  1  0
  3 36  1  0
  4 37  1  1
  5 38  1  0
  5 39  1  0
  6 40  1  0
  6 41  1  0
  8 42  1  6
  9 43  1  1
 10 44  1  0
 10 45  1  0
 11 46  1  0
 11 47  1  0
 12 48  1  6
 14 49  1  0
 14 50  1  0
 15 51  1  0
 15 52  1  0
 16 53  1  6
 18 54  1  6
 19 55  1  0
 19 56  1  0
 20 57  1  0
 20 58  1  0
 23 59  1  0
 23 60  1  0
 24 61  1  0
 24 62  1  0
 25 63  1  0
 25 64  1  0
 25 65  1  0
 26 66  1  0
 26 67  1  0
 26 68  1  0
 27 69  1  0
 27 70  1  0
 27 71  1  0
 28 72  1  0
 28 73  1  0
 28 74  1  0
 29 75  1  0
 30 76  1  0
 30 77  1  0
 30 78  1  0
 31 79  1  0
 31 80  1  0
 31 81  1  0
M  END
$$$$
