
     RDKit          3D

 23 24  0  0  0  0  0  0  0  0999 V2000
    1.8559   -2.3762    0.1432 O   0  0  0  0  0  0  0  0  0  0  0  0
    2.4708   -1.2947   -0.0380 C   0  0  0  0  0  0  0  0  0  0  0  0
    3.8480   -1.3429   -0.0841 C   0  0  0  0  0  0  0  0  0  0  0  0
    4.6078   -0.2060   -0.2790 C   0  0  0  0  0  0  0  0  0  0  0  0
    3.9427    0.9863   -0.4269 C   0  0  0  0  0  0  0  0  0  0  0  0
    2.5512    1.0112   -0.3768 C   0  0  0  0  0  0  0  0  0  0  0  0
    1.8433   -0.1146   -0.1856 N   0  0  0  0  0  0  0  0  0  0  0  0
    0.0029   -0.0644   -0.1218 Zn  0  0  0  0  0  2  0  0  0  0  0  0
   -1.8491    0.0782    0.0184 N   0  0  0  0  0  0  0  0  0  0  0  0
   -2.6054   -0.4707   -0.9386 C   0  0  0  0  0  0  0  0  0  0  0  0
   -3.9822   -0.3802   -0.8603 C   0  0  0  0  0  0  0  0  0  0  0  0
   -4.5993    0.2659    0.1865 C   0  0  0  0  0  0  0  0  0  0  0  0
   -3.8100    0.8252    1.1626 C   0  0  0  0  0  0  0  0  0  0  0  0
   -2.4424    0.7112    1.0444 C   0  0  0  0  0  0  0  0  0  0  0  0
   -1.7335    1.2251    1.9405 O   0  0  0  0  0  0  0  0  0  0  0  0
    4.3268   -2.2884    0.0351 H   0  0  0  0  0  0  0  0  0  0  0  0
    5.6873   -0.2968   -0.3074 H   0  0  0  0  0  0  0  0  0  0  0  0
    4.5276    1.8716   -0.5784 H   0  0  0  0  0  0  0  0  0  0  0  0
    2.0984    1.9838   -0.5010 H   0  0  0  0  0  0  0  0  0  0  0  0
   -2.1382   -0.9868   -1.7761 H   0  0  0  0  0  0  0  0  0  0  0  0
   -4.6306   -0.8123   -1.6165 H   0  0  0  0  0  0  0  0  0  0  0  0
   -5.6683    0.3457    0.2632 H   0  0  0  0  0  0  0  0  0  0  0  0
   -4.3038    1.3299    1.9795 H   0  0  0  0  0  0  0  0  0  0  0  0
  1  2  2  0
  2  3  1  0
  3  4  2  0
  4  5  1  0
  5  6  2  0
  6  7  1  0
  7  8  1  0
  8  9  1  0
  9 10  1  0
 10 11  2  0
 11 12  1  0
 12 13  2  0
 13 14  1  0
 14 15  2  0
  7  2  1  0
 14  9  1  0
  3 16  1  0
  4 17  1  0
  5 18  1  0
  6 19  1  0
 10 20  1  0
 11 21  1  0
 12 22  1  0
 13 23  1  0
M  END
$$$$
