
     RDKit          3D

 45 48  0  0  0  0  0  0  0  0999 V2000
   -3.8882   -0.5245   -1.2679 C   0  0  0  0  0  0  0  0  0  0  0  0
   -3.4236   -0.4464    0.1960 C   0  0  2  0  0  0  0  0  0  0  0  0
   -3.6377    0.9921    0.7474 C   0  0  0  0  0  0  0  0  0  0  0  0
   -2.2796    1.7075    0.6586 C   0  0  0  0  0  0  0  0  0  0  0  0
   -1.3435    0.6934   -0.0012 C   0  0  2  0  0  0  0  0  0  0  0  0
   -1.9042   -0.6769    0.4448 C   0  0  2  0  0  0  0  0  0  0  0  0
   -1.1624   -1.7295   -0.3456 C   0  0  0  0  0  0  0  0  0  0  0  0
    0.1339   -1.5717   -0.6776 C   0  0  0  0  0  0  0  0  0  0  0  0
    0.9316   -0.3865   -0.3209 C   0  0  0  0  0  0  0  0  0  0  0  0
    2.2848   -0.3224   -0.4530 C   0  0  0  0  0  0  0  0  0  0  0  0
    3.1247   -1.5153   -0.8802 C   0  0  0  0  0  0  0  0  0  0  0  0
    4.6467   -1.3505   -0.8972 C   0  0  0  0  0  0  0  0  0  0  0  0
    5.1244   -0.3185    0.0773 C   0  0  0  0  0  0  0  0  0  0  0  0
    6.1805   -0.4226    0.7003 O   0  0  0  0  0  0  0  0  0  0  0  0
    4.3159    0.9058    0.2082 C   0  0  0  0  0  0  0  0  0  0  0  0
    2.9999    0.9004   -0.0781 C   0  0  0  0  0  0  0  0  0  0  0  0
    2.2284    2.1937    0.0642 C   0  0  0  0  0  0  0  0  0  0  0  0
    0.7501    2.1015   -0.3046 C   0  0  0  0  0  0  0  0  0  0  0  0
    0.1611    0.8053    0.2648 C   0  0  1  0  0  0  0  0  0  0  0  0
   -1.6477   -1.0143    1.9403 C   0  0  0  0  0  0  0  0  0  0  0  0
   -4.2355   -1.3455    0.9473 O   0  0  0  0  0  0  0  0  0  0  0  0
   -4.9897   -0.4723   -1.3308 H   0  0  0  0  0  0  0  0  0  0  0  0
   -3.6077   -1.4841   -1.7267 H   0  0  0  0  0  0  0  0  0  0  0  0
   -3.4814    0.2841   -1.8940 H   0  0  0  0  0  0  0  0  0  0  0  0
   -4.4183    1.5436    0.1954 H   0  0  0  0  0  0  0  0  0  0  0  0
   -3.9857    0.9709    1.7878 H   0  0  0  0  0  0  0  0  0  0  0  0
   -2.3499    2.6340    0.0737 H   0  0  0  0  0  0  0  0  0  0  0  0
   -1.9315    1.9873    1.6600 H   0  0  0  0  0  0  0  0  0  0  0  0
   -1.4834    0.8116   -1.0886 H   0  0  0  0  0  0  0  0  0  0  0  0
   -1.6776   -2.6527   -0.5999 H   0  0  0  0  0  0  0  0  0  0  0  0
    0.6245   -2.3846   -1.2169 H   0  0  0  0  0  0  0  0  0  0  0  0
    2.9015   -2.3518   -0.2006 H   0  0  0  0  0  0  0  0  0  0  0  0
    2.8268   -1.8382   -1.8900 H   0  0  0  0  0  0  0  0  0  0  0  0
    4.9884   -1.0445   -1.8954 H   0  0  0  0  0  0  0  0  0  0  0  0
    5.1156   -2.3173   -0.6654 H   0  0  0  0  0  0  0  0  0  0  0  0
    4.8369    1.7843    0.5660 H   0  0  0  0  0  0  0  0  0  0  0  0
    2.2998    2.5273    1.1084 H   0  0  0  0  0  0  0  0  0  0  0  0
    2.6873    2.9799   -0.5530 H   0  0  0  0  0  0  0  0  0  0  0  0
    0.6337    2.1206   -1.4025 H   0  0  0  0  0  0  0  0  0  0  0  0
    0.2147    2.9803    0.0702 H   0  0  0  0  0  0  0  0  0  0  0  0
    0.3190    0.8151    1.3511 H   0  0  0  0  0  0  0  0  0  0  0  0
   -2.1553   -1.9436    2.2367 H   0  0  0  0  0  0  0  0  0  0  0  0
   -0.5792   -1.1648    2.1657 H   0  0  0  0  0  0  0  0  0  0  0  0
   -2.0030   -0.2291    2.6232 H   0  0  0  0  0  0  0  0  0  0  0  0
   -4.1451   -2.2310    0.5436 H   0  0  0  0  0  0  0  0  0  0  0  0
  1  2  1  0
  2  3  1  0
  3  4  1  0
  4  5  1  0
  5  6  1  0
  6  7  1  0
  7  8  2  0
  8  9  1  0
  9 10  2  0
 10 11  1  0
 11 12  1  0
 12 13  1  0
 13 14  2  0
 13 15  1  0
 15 16  2  0
 16 17  1  0
 17 18  1  0
 18 19  1  0
  6 20  1  1
  2 21  1  1
  6  2  1  0
 19  5  1  0
 19  9  1  0
 16 10  1  0
  1 22  1  0
  1 23  1  0
  1 24  1  0
  3 25  1  0
  3 26  1  0
  4 27  1  0
  4 28  1  0
  5 29  1  6
  7 30  1  0
  8 31  1  0
 11 32  1  0
 11 33  1  0
 12 34  1  0
 12 35  1  0
 15 36  1  0
 17 37  1  0
 17 38  1  0
 18 39  1  0
 18 40  1  0
 19 41  1  1
 20 42  1  0
 20 43  1  0
 20 44  1  0
 21 45  1  0
M  END
$$$$
