
     RDKit          3D

 52 54  0  0  0  0  0  0  0  0999 V2000
    5.2444   -3.3463   -2.0826 O   0  0  0  0  0  0  0  0  0  0  0  0
    5.4997   -2.5965   -0.9883 C   0  0  0  0  0  0  0  0  0  0  0  0
    6.5179   -1.9262   -0.9319 O   0  0  0  0  0  0  0  0  0  0  0  0
    4.3983   -2.7109    0.0600 C   0  0  0  0  0  0  0  0  0  0  0  0
    4.6223   -2.0122    1.2785 O   0  0  0  0  0  0  0  0  0  0  0  0
    4.4919   -0.5938    1.1621 C   0  0  0  0  0  0  0  0  0  0  0  0
    3.0482   -0.1606    1.0871 C   0  0  0  0  0  0  0  0  0  0  0  0
    2.1045   -0.6639    1.9902 C   0  0  0  0  0  0  0  0  0  0  0  0
    0.7703   -0.2558    1.9261 C   0  0  0  0  0  0  0  0  0  0  0  0
    0.3479    0.6749    0.9647 C   0  0  0  0  0  0  0  0  0  0  0  0
    1.2988    1.1821    0.0663 C   0  0  0  0  0  0  0  0  0  0  0  0
    2.6341    0.7728    0.1297 C   0  0  0  0  0  0  0  0  0  0  0  0
   -1.1206    1.1005    0.9154 C   0  0  0  0  0  0  0  0  0  0  0  0
   -1.8389    0.5386   -0.3576 C   0  0  0  0  0  0  0  0  0  0  0  0
   -1.9570   -0.9320   -0.3986 N   0  0  0  0  0  0  0  0  0  0  0  0
   -2.9610   -1.4738    0.5404 C   0  0  0  0  0  0  0  0  0  0  0  0
   -4.2402   -2.0263   -0.1292 C   0  0  0  0  0  0  0  0  0  0  0  0
   -3.9960   -3.0612   -1.1460 N   0  0  0  0  0  0  0  0  0  0  0  0
   -2.6995   -2.8661   -1.8142 C   0  0  0  0  0  0  0  0  0  0  0  0
   -2.1836   -1.4128   -1.7737 C   0  0  0  0  0  0  0  0  0  0  0  0
   -1.2882    2.6158    1.1070 C   0  0  0  0  0  0  0  0  0  0  0  0
   -1.3924    3.4813   -0.0017 C   0  0  0  0  0  0  0  0  0  0  0  0
   -1.5285    4.8627    0.1623 C   0  0  0  0  0  0  0  0  0  0  0  0
   -1.5571    5.4147    1.4372 C   0  0  0  0  0  0  0  0  0  0  0  0
   -1.4458    4.5844    2.5492 C   0  0  0  0  0  0  0  0  0  0  0  0
   -1.3093    3.1994    2.3906 C   0  0  0  0  0  0  0  0  0  0  0  0
   -1.1799    2.2652    3.8417 Cl  0  0  0  0  0  0  0  0  0  0  0  0
    6.0229   -3.1926   -2.6585 H   0  0  0  0  0  0  0  0  0  0  0  0
    3.4478   -2.4054   -0.3902 H   0  0  0  0  0  0  0  0  0  0  0  0
    4.3224   -3.7712    0.3238 H   0  0  0  0  0  0  0  0  0  0  0  0
    5.0687   -0.2211    0.3092 H   0  0  0  0  0  0  0  0  0  0  0  0
    4.9333   -0.1506    2.0620 H   0  0  0  0  0  0  0  0  0  0  0  0
    2.4059   -1.3862    2.7464 H   0  0  0  0  0  0  0  0  0  0  0  0
    0.0593   -0.6751    2.6348 H   0  0  0  0  0  0  0  0  0  0  0  0
    1.0127    1.9050   -0.6927 H   0  0  0  0  0  0  0  0  0  0  0  0
    3.3477    1.1905   -0.5769 H   0  0  0  0  0  0  0  0  0  0  0  0
   -1.6365    0.6357    1.7634 H   0  0  0  0  0  0  0  0  0  0  0  0
   -1.2734    0.8620   -1.2418 H   0  0  0  0  0  0  0  0  0  0  0  0
   -2.8396    0.9827   -0.4509 H   0  0  0  0  0  0  0  0  0  0  0  0
   -2.4803   -2.2912    1.0931 H   0  0  0  0  0  0  0  0  0  0  0  0
   -3.2584   -0.7374    1.2952 H   0  0  0  0  0  0  0  0  0  0  0  0
   -4.9016   -2.4437    0.6377 H   0  0  0  0  0  0  0  0  0  0  0  0
   -4.7820   -1.1924   -0.5940 H   0  0  0  0  0  0  0  0  0  0  0  0
   -4.7479   -3.0297   -1.8326 H   0  0  0  0  0  0  0  0  0  0  0  0
   -2.7846   -3.1958   -2.8559 H   0  0  0  0  0  0  0  0  0  0  0  0
   -1.9631   -3.5263   -1.3395 H   0  0  0  0  0  0  0  0  0  0  0  0
   -1.2402   -1.3559   -2.3293 H   0  0  0  0  0  0  0  0  0  0  0  0
   -2.9072   -0.7719   -2.2959 H   0  0  0  0  0  0  0  0  0  0  0  0
   -1.3580    3.0974   -1.0182 H   0  0  0  0  0  0  0  0  0  0  0  0
   -1.6061    5.5078   -0.7099 H   0  0  0  0  0  0  0  0  0  0  0  0
   -1.6598    6.4889    1.5669 H   0  0  0  0  0  0  0  0  0  0  0  0
   -1.4623    5.0225    3.5444 H   0  0  0  0  0  0  0  0  0  0  0  0
  1  2  1  0
  2  3  2  0
  2  4  1  0
  4  5  1  0
  5  6  1  0
  6  7  1  0
  7  8  2  0
  8  9  1  0
  9 10  2  0
 10 11  1  0
 11 12  2  0
 10 13  1  0
 13 14  1  0
 14 15  1  0
 15 16  1  0
 16 17  1  0
 17 18  1  0
 18 19  1  0
 19 20  1  0
 13 21  1  0
 21 22  2  0
 22 23  1  0
 23 24  2  0
 24 25  1  0
 25 26  2  0
 26 27  1  0
 12  7  1  0
 20 15  1  0
 26 21  1  0
  1 28  1  0
  4 29  1  0
  4 30  1  0
  6 31  1  0
  6 32  1  0
  8 33  1  0
  9 34  1  0
 11 35  1  0
 12 36  1  0
 13 37  1  0
 14 38  1  0
 14 39  1  0
 16 40  1  0
 16 41  1  0
 17 42  1  0
 17 43  1  0
 18 44  1  0
 19 45  1  0
 19 46  1  0
 20 47  1  0
 20 48  1  0
 22 49  1  0
 23 50  1  0
 24 51  1  0
 25 52  1  0
M  END
$$$$
