
     RDKit          3D

 48 49  0  0  0  0  0  0  0  0999 V2000
   -4.2549    1.7353    1.1937 C   0  0  0  0  0  0  0  0  0  0  0  0
   -4.4181    1.0705   -0.1680 C   0  0  0  0  0  0  0  0  0  0  0  0
   -3.2446    0.2883   -0.5869 N   0  0  0  0  0  0  0  0  0  0  0  0
   -3.3001   -0.0463   -2.0205 C   0  0  0  0  0  0  0  0  0  0  0  0
   -4.4715   -0.9196   -2.4637 C   0  0  0  0  0  0  0  0  0  0  0  0
   -2.9938   -0.8942    0.2500 C   0  0  0  0  0  0  0  0  0  0  0  0
   -1.8483   -0.6586    1.2461 C   0  0  0  0  0  0  0  0  0  0  0  0
   -0.5040   -0.3918    0.5542 C   0  0  0  0  0  0  0  0  0  0  0  0
    0.6267   -0.0834    1.5477 C   0  0  0  0  0  0  0  0  0  0  0  0
    0.9405   -1.1889    2.5532 C   0  0  0  0  0  0  0  0  0  0  0  0
    1.8335    0.4144    0.8727 N   0  0  0  0  0  0  0  0  0  0  0  0
    2.6726   -0.2604   -0.0188 C   0  0  0  0  0  0  0  0  0  0  0  0
    3.8036    0.4178   -0.5712 C   0  0  0  0  0  0  0  0  0  0  0  0
    4.1433    1.7615   -0.2706 C   0  0  0  0  0  0  0  0  0  0  0  0
    5.2501    2.3819   -0.8501 C   0  0  0  0  0  0  0  0  0  0  0  0
    6.0404    1.6662   -1.7356 C   0  0  0  0  0  0  0  0  0  0  0  0
    5.7375    0.3413   -2.0330 C   0  0  0  0  0  0  0  0  0  0  0  0
    4.6445   -0.2943   -1.4635 C   0  0  0  0  0  0  0  0  0  0  0  0
    4.4431   -1.5767   -1.7868 N   0  0  0  0  0  0  0  0  0  0  0  0
    3.4051   -2.2083   -1.2119 C   0  0  0  0  0  0  0  0  0  0  0  0
    2.5215   -1.6083   -0.3334 C   0  0  0  0  0  0  0  0  0  0  0  0
    7.4079    2.4177   -2.4602 Cl  0  0  0  0  0  0  0  0  0  0  0  0
   -4.2456    1.0006    2.0042 H   0  0  0  0  0  0  0  0  0  0  0  0
   -3.3329    2.3242    1.2398 H   0  0  0  0  0  0  0  0  0  0  0  0
   -5.0940    2.4143    1.3791 H   0  0  0  0  0  0  0  0  0  0  0  0
   -4.5878    1.8761   -0.8938 H   0  0  0  0  0  0  0  0  0  0  0  0
   -5.3253    0.4544   -0.1577 H   0  0  0  0  0  0  0  0  0  0  0  0
   -3.3169    0.8849   -2.6010 H   0  0  0  0  0  0  0  0  0  0  0  0
   -2.3616   -0.5393   -2.3053 H   0  0  0  0  0  0  0  0  0  0  0  0
   -5.4302   -0.4114   -2.3227 H   0  0  0  0  0  0  0  0  0  0  0  0
   -4.5007   -1.8697   -1.9218 H   0  0  0  0  0  0  0  0  0  0  0  0
   -4.3772   -1.1498   -3.5303 H   0  0  0  0  0  0  0  0  0  0  0  0
   -3.8981   -1.2018    0.7900 H   0  0  0  0  0  0  0  0  0  0  0  0
   -2.7095   -1.7606   -0.3618 H   0  0  0  0  0  0  0  0  0  0  0  0
   -1.7627   -1.5541    1.8729 H   0  0  0  0  0  0  0  0  0  0  0  0
   -2.0859    0.1714    1.9192 H   0  0  0  0  0  0  0  0  0  0  0  0
   -0.2561   -1.2551   -0.0711 H   0  0  0  0  0  0  0  0  0  0  0  0
   -0.6052    0.4615   -0.1282 H   0  0  0  0  0  0  0  0  0  0  0  0
    0.2826    0.7669    2.1530 H   0  0  0  0  0  0  0  0  0  0  0  0
    0.1245   -1.2939    3.2762 H   0  0  0  0  0  0  0  0  0  0  0  0
    1.8498   -0.9584    3.1190 H   0  0  0  0  0  0  0  0  0  0  0  0
    1.0760   -2.1650    2.0823 H   0  0  0  0  0  0  0  0  0  0  0  0
    1.6992    1.3785    0.5741 H   0  0  0  0  0  0  0  0  0  0  0  0
    3.5539    2.3362    0.4392 H   0  0  0  0  0  0  0  0  0  0  0  0
    5.4873    3.4124   -0.6009 H   0  0  0  0  0  0  0  0  0  0  0  0
    6.3681   -0.2186   -2.7190 H   0  0  0  0  0  0  0  0  0  0  0  0
    3.2926   -3.2538   -1.4853 H   0  0  0  0  0  0  0  0  0  0  0  0
    1.7207   -2.2140    0.0629 H   0  0  0  0  0  0  0  0  0  0  0  0
  1  2  1  0
  2  3  1  0
  3  4  1  0
  4  5  1  0
  3  6  1  0
  6  7  1  0
  7  8  1  0
  8  9  1  0
  9 10  1  0
  9 11  1  0
 11 12  1  0
 12 13  2  0
 13 14  1  0
 14 15  2  0
 15 16  1  0
 16 17  2  0
 17 18  1  0
 18 19  2  0
 19 20  1  0
 20 21  2  0
 16 22  1  0
 21 12  1  0
 18 13  1  0
  1 23  1  0
  1 24  1  0
  1 25  1  0
  2 26  1  0
  2 27  1  0
  4 28  1  0
  4 29  1  0
  5 30  1  0
  5 31  1  0
  5 32  1  0
  6 33  1  0
  6 34  1  0
  7 35  1  0
  7 36  1  0
  8 37  1  0
  8 38  1  0
  9 39  1  0
 10 40  1  0
 10 41  1  0
 10 42  1  0
 11 43  1  0
 14 44  1  0
 15 45  1  0
 17 46  1  0
 20 47  1  0
 21 48  1  0
M  END
$$$$
