
     RDKit          3D

 21 20  0  0  0  0  0  0  0  0999 V2000
   -0.0590   -0.4191   -0.0588 C   0  0  0  0  0  0  0  0  0  0  0  0
    1.3104    0.2636   -0.0446 C   0  0  0  0  0  0  0  0  0  0  0  0
    2.4358   -0.7512   -0.2393 C   0  0  0  0  0  0  0  0  0  0  0  0
    3.7313   -0.0833   -0.2047 N   0  0  0  0  0  0  0  0  0  0  0  0
   -1.1894    0.5957    0.1260 C   0  0  0  0  0  0  0  0  0  0  0  0
   -2.5544   -0.0906    0.1213 C   0  0  0  0  0  0  0  0  0  0  0  0
   -3.6170    0.8947    0.2805 N   0  0  0  0  0  0  0  0  0  0  0  0
   -0.1037   -1.1686    0.7408 H   0  0  0  0  0  0  0  0  0  0  0  0
   -0.1948   -0.9506   -1.0086 H   0  0  0  0  0  0  0  0  0  0  0  0
    1.3497    1.0197   -0.8390 H   0  0  0  0  0  0  0  0  0  0  0  0
    1.4458    0.7900    0.9088 H   0  0  0  0  0  0  0  0  0  0  0  0
    2.4031   -1.5071    0.5525 H   0  0  0  0  0  0  0  0  0  0  0  0
    2.3186   -1.2671   -1.1986 H   0  0  0  0  0  0  0  0  0  0  0  0
    3.7813    0.6085   -0.9517 H   0  0  0  0  0  0  0  0  0  0  0  0
    4.4672   -0.7622   -0.3948 H   0  0  0  0  0  0  0  0  0  0  0  0
   -1.0466    1.1331    1.0721 H   0  0  0  0  0  0  0  0  0  0  0  0
   -1.1457    1.3411   -0.6782 H   0  0  0  0  0  0  0  0  0  0  0  0
   -2.6130   -0.8227    0.9343 H   0  0  0  0  0  0  0  0  0  0  0  0
   -2.7037   -0.6267   -0.8220 H   0  0  0  0  0  0  0  0  0  0  0  0
   -3.5004    1.3857    1.1662 H   0  0  0  0  0  0  0  0  0  0  0  0
   -4.5158    0.4173    0.3351 H   0  0  0  0  0  0  0  0  0  0  0  0
  1  2  1  0
  2  3  1  0
  3  4  1  0
  1  5  1  0
  5  6  1  0
  6  7  1  0
  1  8  1  0
  1  9  1  0
  2 10  1  0
  2 11  1  0
  3 12  1  0
  3 13  1  0
  4 14  1  0
  4 15  1  0
  5 16  1  0
  5 17  1  0
  6 18  1  0
  6 19  1  0
  7 20  1  0
  7 21  1  0
M  END
$$$$
