
     RDKit          3D

 57 59  0  0  0  0  0  0  0  0999 V2000
   -4.9861   -0.2339    1.8529 C   0  0  0  0  0  0  0  0  0  0  0  0
   -4.1846    0.7429    0.9922 C   0  0  0  0  0  0  0  0  0  0  0  0
   -2.8696    0.1848    0.4575 C   0  0  0  0  0  0  0  0  0  0  0  0
   -1.6567    0.7987    0.5702 C   0  0  0  0  0  0  0  0  0  0  0  0
   -1.5597    2.1456    1.2010 C   0  0  0  0  0  0  0  0  0  0  0  0
   -1.0936    2.3001    2.5119 C   0  0  0  0  0  0  0  0  0  0  0  0
   -1.0226    3.5728    3.0878 C   0  0  0  0  0  0  0  0  0  0  0  0
   -1.4260    4.6924    2.3642 C   0  0  0  0  0  0  0  0  0  0  0  0
   -1.8983    4.5499    1.0599 C   0  0  0  0  0  0  0  0  0  0  0  0
   -1.9592    3.2880    0.4790 C   0  0  0  0  0  0  0  0  0  0  0  0
   -0.4244    0.1596    0.0282 C   0  0  0  0  0  0  0  0  0  0  0  0
   -0.1549    0.1727   -1.3474 C   0  0  0  0  0  0  0  0  0  0  0  0
    0.9532   -0.5092   -1.8442 C   0  0  0  0  0  0  0  0  0  0  0  0
    1.8232   -1.1900   -0.9857 C   0  0  0  0  0  0  0  0  0  0  0  0
    1.5747   -1.1747    0.3899 C   0  0  0  0  0  0  0  0  0  0  0  0
    0.4535   -0.5058    0.8904 C   0  0  0  0  0  0  0  0  0  0  0  0
    2.8801   -1.7855   -1.6192 O   0  0  0  0  0  0  0  0  0  0  0  0
    3.9251   -2.3466   -0.8355 C   0  0  0  0  0  0  0  0  0  0  0  0
    4.8855   -1.3091   -0.1943 C   0  0  0  0  0  0  0  0  0  0  0  0
    5.6925   -0.5088   -1.1495 N   0  0  0  0  0  0  0  0  0  0  0  0
    4.8831    0.5368   -1.7757 C   0  0  0  0  0  0  0  0  0  0  0  0
    6.8284    0.0990   -0.4587 C   0  0  0  0  0  0  0  0  0  0  0  0
   -3.0460   -1.0848   -0.3027 C   0  0  0  0  0  0  0  0  0  0  0  0
   -3.7109   -1.0755   -1.5335 C   0  0  0  0  0  0  0  0  0  0  0  0
   -3.8326   -2.2496   -2.2803 C   0  0  0  0  0  0  0  0  0  0  0  0
   -3.2918   -3.4399   -1.7975 C   0  0  0  0  0  0  0  0  0  0  0  0
   -2.6293   -3.4684   -0.5645 C   0  0  0  0  0  0  0  0  0  0  0  0
   -2.5242   -2.2947    0.1843 C   0  0  0  0  0  0  0  0  0  0  0  0
   -5.8507    0.2826    2.2921 H   0  0  0  0  0  0  0  0  0  0  0  0
   -5.3783   -1.0621    1.2491 H   0  0  0  0  0  0  0  0  0  0  0  0
   -4.3826   -0.6406    2.6707 H   0  0  0  0  0  0  0  0  0  0  0  0
   -4.8066    1.0973    0.1551 H   0  0  0  0  0  0  0  0  0  0  0  0
   -4.0199    1.6285    1.6236 H   0  0  0  0  0  0  0  0  0  0  0  0
   -0.7803    1.4331    3.0867 H   0  0  0  0  0  0  0  0  0  0  0  0
   -0.6551    3.6821    4.1106 H   0  0  0  0  0  0  0  0  0  0  0  0
   -1.3668    5.6820    2.8186 H   0  0  0  0  0  0  0  0  0  0  0  0
   -2.2201    5.4305    0.4993 H   0  0  0  0  0  0  0  0  0  0  0  0
   -2.3245    3.1874   -0.5384 H   0  0  0  0  0  0  0  0  0  0  0  0
   -0.8375    0.6641   -2.0427 H   0  0  0  0  0  0  0  0  0  0  0  0
    1.1421   -0.5289   -2.9227 H   0  0  0  0  0  0  0  0  0  0  0  0
    2.2207   -1.6755    1.1074 H   0  0  0  0  0  0  0  0  0  0  0  0
    0.2476   -0.5159    1.9639 H   0  0  0  0  0  0  0  0  0  0  0  0
    4.5048   -2.9605   -1.5261 H   0  0  0  0  0  0  0  0  0  0  0  0
    3.5264   -3.0390   -0.0835 H   0  0  0  0  0  0  0  0  0  0  0  0
    4.3414   -0.6404    0.4854 H   0  0  0  0  0  0  0  0  0  0  0  0
    5.5822   -1.8985    0.4286 H   0  0  0  0  0  0  0  0  0  0  0  0
    5.4958    1.1902   -2.4131 H   0  0  0  0  0  0  0  0  0  0  0  0
    4.3822    1.1829   -1.0400 H   0  0  0  0  0  0  0  0  0  0  0  0
    4.1247    0.1230   -2.4456 H   0  0  0  0  0  0  0  0  0  0  0  0
    6.5205    0.7382    0.3786 H   0  0  0  0  0  0  0  0  0  0  0  0
    7.4398    0.7028   -1.1404 H   0  0  0  0  0  0  0  0  0  0  0  0
    7.5006   -0.6767   -0.0678 H   0  0  0  0  0  0  0  0  0  0  0  0
   -4.1242   -0.1486   -1.9269 H   0  0  0  0  0  0  0  0  0  0  0  0
   -4.3432   -2.2287   -3.2410 H   0  0  0  0  0  0  0  0  0  0  0  0
   -3.3744   -4.3486   -2.3829 H   0  0  0  0  0  0  0  0  0  0  0  0
   -2.1927   -4.4006   -0.1955 H   0  0  0  0  0  0  0  0  0  0  0  0
   -2.0005   -2.3271    1.1369 H   0  0  0  0  0  0  0  0  0  0  0  0
  1  2  1  0
  2  3  1  0
  3  4  2  0
  4  5  1  0
  5  6  2  0
  6  7  1  0
  7  8  2  0
  8  9  1  0
  9 10  2  0
  4 11  1  0
 11 12  2  0
 12 13  1  0
 13 14  2  0
 14 15  1  0
 15 16  2  0
 14 17  1  0
 17 18  1  0
 18 19  1  0
 19 20  1  0
 20 21  1  0
 20 22  1  0
  3 23  1  0
 23 24  2  0
 24 25  1  0
 25 26  2  0
 26 27  1  0
 27 28  2  0
 10  5  1  0
 16 11  1  0
 28 23  1  0
  1 29  1  0
  1 30  1  0
  1 31  1  0
  2 32  1  0
  2 33  1  0
  6 34  1  0
  7 35  1  0
  8 36  1  0
  9 37  1  0
 10 38  1  0
 12 39  1  0
 13 40  1  0
 15 41  1  0
 16 42  1  0
 18 43  1  0
 18 44  1  0
 19 45  1  0
 19 46  1  0
 21 47  1  0
 21 48  1  0
 21 49  1  0
 22 50  1  0
 22 51  1  0
 22 52  1  0
 24 53  1  0
 25 54  1  0
 26 55  1  0
 27 56  1  0
 28 57  1  0
M  END
$$$$
