
     RDKit          3D

 33 33  0  0  0  0  0  0  0  0999 V2000
   -4.3297   -1.8554   -0.3559 C   0  0  0  0  0  0  0  0  0  0  0  0
   -3.5267   -0.6396   -0.6156 C   0  0  0  0  0  0  0  0  0  0  0  0
   -2.1600   -0.4262   -0.6618 C   0  0  0  0  0  0  0  0  0  0  0  0
   -1.8953    0.9018   -0.9297 N   0  0  0  0  0  0  0  0  0  0  0  0
   -3.0676    1.4781   -1.0541 C   0  0  0  0  0  0  0  0  0  0  0  0
   -4.0852    0.5878   -0.8695 N   0  0  0  0  0  0  0  0  0  0  0  0
   -1.0434   -1.3927   -0.4674 C   0  0  0  0  0  0  0  0  0  0  0  0
   -0.5847   -1.5911    1.2910 S   0  0  0  0  0  0  0  0  0  0  0  0
   -0.1799    0.1478    1.7298 C   0  0  0  0  0  0  0  0  0  0  0  0
    0.9965    0.7322    0.9361 C   0  0  0  0  0  0  0  0  0  0  0  0
    2.1754   -0.1180    1.0696 N   0  0  0  0  0  0  0  0  0  0  0  0
    3.2523   -0.0609    0.2368 C   0  0  0  0  0  0  0  0  0  0  0  0
    3.7955    0.9065   -0.3895 N   0  0  0  0  0  0  0  0  0  0  0  0
    3.3451    2.2712   -0.2340 C   0  0  0  0  0  0  0  0  0  0  0  0
    3.8126   -1.3412    0.1048 N   0  0  0  0  0  0  0  0  0  0  0  0
    4.9234   -1.4313   -0.6287 C   0  0  0  0  0  0  0  0  0  0  0  0
    5.8903   -1.6123   -1.2408 N   0  0  0  0  0  0  0  0  0  0  0  0
   -4.0177   -2.6695   -1.0177 H   0  0  0  0  0  0  0  0  0  0  0  0
   -4.1981   -2.1841    0.6798 H   0  0  0  0  0  0  0  0  0  0  0  0
   -5.3968   -1.6765   -0.5224 H   0  0  0  0  0  0  0  0  0  0  0  0
   -3.2424    2.5229   -1.2743 H   0  0  0  0  0  0  0  0  0  0  0  0
   -5.0723    0.8016   -0.9150 H   0  0  0  0  0  0  0  0  0  0  0  0
   -1.3373   -2.3783   -0.8440 H   0  0  0  0  0  0  0  0  0  0  0  0
   -0.1626   -1.0904   -1.0422 H   0  0  0  0  0  0  0  0  0  0  0  0
    0.0805    0.1368    2.7945 H   0  0  0  0  0  0  0  0  0  0  0  0
   -1.0691    0.7774    1.6349 H   0  0  0  0  0  0  0  0  0  0  0  0
    0.7291    0.8474   -0.1186 H   0  0  0  0  0  0  0  0  0  0  0  0
    1.2088    1.7270    1.3394 H   0  0  0  0  0  0  0  0  0  0  0  0
    1.8899   -1.0697    1.2723 H   0  0  0  0  0  0  0  0  0  0  0  0
    3.2412    2.5541    0.8180 H   0  0  0  0  0  0  0  0  0  0  0  0
    4.0950    2.9426   -0.6652 H   0  0  0  0  0  0  0  0  0  0  0  0
    2.4096    2.4493   -0.7717 H   0  0  0  0  0  0  0  0  0  0  0  0
    3.5236   -2.1006    0.7111 H   0  0  0  0  0  0  0  0  0  0  0  0
  1  2  1  0
  2  3  2  0
  3  4  1  0
  4  5  2  0
  5  6  1  0
  3  7  1  0
  7  8  1  0
  8  9  1  0
  9 10  1  0
 10 11  1  0
 11 12  1  0
 12 13  2  3
 13 14  1  0
 12 15  1  0
 15 16  1  0
 16 17  3  0
  6  2  1  0
  1 18  1  0
  1 19  1  0
  1 20  1  0
  5 21  1  0
  6 22  1  0
  7 23  1  0
  7 24  1  0
  9 25  1  0
  9 26  1  0
 10 27  1  0
 10 28  1  0
 11 29  1  0
 14 30  1  0
 14 31  1  0
 14 32  1  0
 15 33  1  0
M  END
$$$$
