
     RDKit          3D

 22 23  0  0  0  0  0  0  0  0999 V2000
   -1.6629    1.5575    0.3734 C   0  0  0  0  0  0  0  0  0  0  0  0
   -2.1803    0.1837   -0.0320 C   0  0  1  0  0  0  0  0  0  0  0  0
   -1.0043   -0.7487    0.2315 C   0  0  2  0  0  0  0  0  0  0  0  0
    0.0878    0.1484    0.7879 C   0  0  2  0  0  0  0  0  0  0  0  0
   -0.2324    1.4767    0.3393 O   0  0  0  0  0  0  0  0  0  0  0  0
    1.3487   -0.3831    0.1355 C   0  0  1  0  0  0  0  0  0  0  0  0
    0.8167   -0.7965   -1.2288 C   0  0  0  0  0  0  0  0  0  0  0  0
   -0.5140   -1.2931   -1.0166 O   0  0  0  0  0  0  0  0  0  0  0  0
    2.3459    0.6245    0.0700 O   0  0  0  0  0  0  0  0  0  0  0  0
    3.6241    0.1366   -0.2810 N   0  0  0  0  0  4  0  0  0  0  0  0
    4.4669    1.0238   -0.3864 O   0  0  0  0  0  0  0  0  0  0  0  0
    3.7418   -1.0848   -0.4254 O   0  0  0  0  0  1  0  0  0  0  0  0
   -3.3166   -0.1745    0.7488 O   0  0  0  0  0  0  0  0  0  0  0  0
   -1.9949    2.3461   -0.3094 H   0  0  0  0  0  0  0  0  0  0  0  0
   -1.9783    1.8297    1.3844 H   0  0  0  0  0  0  0  0  0  0  0  0
   -2.4666    0.1900   -1.0895 H   0  0  0  0  0  0  0  0  0  0  0  0
   -1.2504   -1.5890    0.8874 H   0  0  0  0  0  0  0  0  0  0  0  0
    0.1323    0.1678    1.8838 H   0  0  0  0  0  0  0  0  0  0  0  0
    1.6674   -1.2626    0.7140 H   0  0  0  0  0  0  0  0  0  0  0  0
    0.7759    0.0488   -1.9220 H   0  0  0  0  0  0  0  0  0  0  0  0
    1.4239   -1.5790   -1.6916 H   0  0  0  0  0  0  0  0  0  0  0  0
   -3.8307   -0.8222    0.2227 H   0  0  0  0  0  0  0  0  0  0  0  0
  1  2  1  0
  2  3  1  0
  3  4  1  0
  4  5  1  0
  4  6  1  0
  6  7  1  0
  7  8  1  0
  6  9  1  0
  9 10  1  0
 10 11  2  0
 10 12  1  0
  2 13  1  0
  5  1  1  0
  8  3  1  0
  1 14  1  0
  1 15  1  0
  2 16  1  6
  3 17  1  1
  4 18  1  1
  6 19  1  1
  7 20  1  0
  7 21  1  0
 13 22  1  0
M  CHG  2  10   1  12  -1
M  END
$$$$
