
     RDKit          3D

 92 94  0  0  0  0  0  0  0  0999 V2000
    5.2146    3.0330    2.8108 C   0  0  0  0  0  0  0  0  0  0  0  0
    4.9180    2.1450    1.6255 C   0  0  0  0  0  0  0  0  0  0  0  0
    5.9635    1.4823    0.9489 C   0  0  0  0  0  0  0  0  0  0  0  0
    5.6310    0.6286   -0.1208 C   0  0  0  0  0  0  0  0  0  0  0  0
    4.3159    0.4725   -0.5942 C   0  0  0  0  0  0  0  0  0  0  0  0
    3.2872    1.2002    0.0387 C   0  0  0  0  0  0  0  0  0  0  0  0
    3.5910    2.0075    1.1518 C   0  0  0  0  0  0  0  0  0  0  0  0
    2.6401    2.7451    1.8212 O   0  0  0  0  0  0  0  0  0  0  0  0
    1.2431    2.5290    1.5231 C   0  0  2  0  0  0  0  0  0  0  0  0
    1.0720    2.3277    0.0196 C   0  0  0  0  0  0  0  0  0  0  0  0
    1.8654    1.1189   -0.4492 C   0  0  0  0  0  0  0  0  0  0  0  0
    0.5528    3.8471    1.9177 C   0  0  0  0  0  0  0  0  0  0  0  0
    0.7545    1.3767    2.4391 C   0  0  0  0  0  0  0  0  0  0  0  0
   -0.7505    1.0618    2.4979 C   0  0  0  0  0  0  0  0  0  0  0  0
   -1.2591    0.1870    1.3475 C   0  0  0  0  0  0  0  0  0  0  0  0
   -2.7438   -0.2150    1.4591 C   0  0  2  0  0  0  0  0  0  0  0  0
   -3.0097   -1.0827    2.6977 C   0  0  0  0  0  0  0  0  0  0  0  0
   -3.2329   -0.9816    0.2047 C   0  0  0  0  0  0  0  0  0  0  0  0
   -3.0730   -0.2748   -1.1506 C   0  0  0  0  0  0  0  0  0  0  0  0
   -3.6920    1.1208   -1.2683 C   0  0  0  0  0  0  0  0  0  0  0  0
   -5.1365    1.1944   -1.8157 C   0  0  2  0  0  0  0  0  0  0  0  0
   -5.5172    2.6774   -1.9464 C   0  0  0  0  0  0  0  0  0  0  0  0
   -6.1823    0.4798   -0.9390 C   0  0  0  0  0  0  0  0  0  0  0  0
   -6.4949   -0.9451   -1.4117 C   0  0  0  0  0  0  0  0  0  0  0  0
   -7.5428   -1.6007   -0.5040 C   0  0  0  0  0  0  0  0  0  0  0  0
   -7.7970   -3.0995   -0.7486 C   0  0  0  0  0  0  0  0  0  0  0  0
   -6.5912   -3.9563   -0.3614 C   0  0  0  0  0  0  0  0  0  0  0  0
   -8.2217   -3.3952   -2.1883 C   0  0  0  0  0  0  0  0  0  0  0  0
    4.0068   -0.4435   -1.7512 C   0  0  0  0  0  0  0  0  0  0  0  0
    6.6780   -0.0080   -0.8129 O   0  0  0  0  0  0  0  0  0  0  0  0
    6.9765   -1.2793   -0.3640 C   0  0  0  0  0  0  0  0  0  0  0  0
    6.4732   -1.8668    0.5815 O   0  0  0  0  0  0  0  0  0  0  0  0
    8.0262   -1.8736   -1.2297 C   0  0  0  0  0  0  0  0  0  0  0  0
    8.5905   -1.1960   -2.3022 C   0  0  0  0  0  0  0  0  0  0  0  0
    9.5339   -1.7262   -3.1155 N   0  0  0  0  0  0  0  0  0  0  0  0
    9.9338   -2.9883   -2.8460 C   0  0  0  0  0  0  0  0  0  0  0  0
    9.4308   -3.7448   -1.7999 C   0  0  0  0  0  0  0  0  0  0  0  0
    8.4603   -3.1769   -0.9772 C   0  0  0  0  0  0  0  0  0  0  0  0
    7.4101    1.6446    1.3279 C   0  0  0  0  0  0  0  0  0  0  0  0
    5.6962    3.9565    2.4754 H   0  0  0  0  0  0  0  0  0  0  0  0
    5.8634    2.5173    3.5263 H   0  0  0  0  0  0  0  0  0  0  0  0
    4.3153    3.3111    3.3710 H   0  0  0  0  0  0  0  0  0  0  0  0
    0.0246    2.2444   -0.2718 H   0  0  0  0  0  0  0  0  0  0  0  0
    1.4573    3.2104   -0.5140 H   0  0  0  0  0  0  0  0  0  0  0  0
    1.4117    0.1886   -0.0910 H   0  0  0  0  0  0  0  0  0  0  0  0
    1.8260    1.1027   -1.5433 H   0  0  0  0  0  0  0  0  0  0  0  0
   -0.5053    3.8555    1.6362 H   0  0  0  0  0  0  0  0  0  0  0  0
    1.0422    4.7025    1.4313 H   0  0  0  0  0  0  0  0  0  0  0  0
    0.6325    4.0227    2.9985 H   0  0  0  0  0  0  0  0  0  0  0  0
    1.0638    1.6305    3.4667 H   0  0  0  0  0  0  0  0  0  0  0  0
    1.3069    0.4511    2.2289 H   0  0  0  0  0  0  0  0  0  0  0  0
   -0.9214    0.5297    3.4414 H   0  0  0  0  0  0  0  0  0  0  0  0
   -1.3428    1.9808    2.5601 H   0  0  0  0  0  0  0  0  0  0  0  0
   -1.1296    0.7403    0.4205 H   0  0  0  0  0  0  0  0  0  0  0  0
   -0.6414   -0.7152    1.2697 H   0  0  0  0  0  0  0  0  0  0  0  0
   -3.3483    0.6942    1.5731 H   0  0  0  0  0  0  0  0  0  0  0  0
   -2.8720   -0.5129    3.6218 H   0  0  0  0  0  0  0  0  0  0  0  0
   -4.0412   -1.4524    2.7024 H   0  0  0  0  0  0  0  0  0  0  0  0
   -2.3426   -1.9502    2.7262 H   0  0  0  0  0  0  0  0  0  0  0  0
   -2.6971   -1.9380    0.1471 H   0  0  0  0  0  0  0  0  0  0  0  0
   -4.2849   -1.2447    0.3532 H   0  0  0  0  0  0  0  0  0  0  0  0
   -2.0000   -0.1928   -1.3643 H   0  0  0  0  0  0  0  0  0  0  0  0
   -3.4689   -0.9217   -1.9432 H   0  0  0  0  0  0  0  0  0  0  0  0
   -3.0559    1.6923   -1.9568 H   0  0  0  0  0  0  0  0  0  0  0  0
   -3.6343    1.6561   -0.3164 H   0  0  0  0  0  0  0  0  0  0  0  0
   -5.1533    0.7619   -2.8265 H   0  0  0  0  0  0  0  0  0  0  0  0
   -4.8256    3.2009   -2.6160 H   0  0  0  0  0  0  0  0  0  0  0  0
   -5.4907    3.1777   -0.9705 H   0  0  0  0  0  0  0  0  0  0  0  0
   -6.5273    2.7931   -2.3582 H   0  0  0  0  0  0  0  0  0  0  0  0
   -7.1284    1.0393   -0.9513 H   0  0  0  0  0  0  0  0  0  0  0  0
   -5.8553    0.4711    0.1070 H   0  0  0  0  0  0  0  0  0  0  0  0
   -5.5899   -1.5536   -1.4340 H   0  0  0  0  0  0  0  0  0  0  0  0
   -6.8726   -0.9099   -2.4415 H   0  0  0  0  0  0  0  0  0  0  0  0
   -8.4907   -1.0611   -0.6221 H   0  0  0  0  0  0  0  0  0  0  0  0
   -7.2486   -1.4646    0.5461 H   0  0  0  0  0  0  0  0  0  0  0  0
   -8.6296   -3.3848   -0.0895 H   0  0  0  0  0  0  0  0  0  0  0  0
   -6.8902   -5.0083   -0.2560 H   0  0  0  0  0  0  0  0  0  0  0  0
   -6.1672   -3.6341    0.5989 H   0  0  0  0  0  0  0  0  0  0  0  0
   -5.7981   -3.9095   -1.1191 H   0  0  0  0  0  0  0  0  0  0  0  0
   -9.0120   -2.7075   -2.5158 H   0  0  0  0  0  0  0  0  0  0  0  0
   -8.6093   -4.4187   -2.2695 H   0  0  0  0  0  0  0  0  0  0  0  0
   -7.3759   -3.3053   -2.8828 H   0  0  0  0  0  0  0  0  0  0  0  0
    3.3627   -1.2668   -1.4173 H   0  0  0  0  0  0  0  0  0  0  0  0
    4.9009   -0.8937   -2.1949 H   0  0  0  0  0  0  0  0  0  0  0  0
    3.5112    0.1043   -2.5606 H   0  0  0  0  0  0  0  0  0  0  0  0
    8.3050   -0.1817   -2.5652 H   0  0  0  0  0  0  0  0  0  0  0  0
   10.6910   -3.3899   -3.5157 H   0  0  0  0  0  0  0  0  0  0  0  0
    9.7848   -4.7546   -1.6284 H   0  0  0  0  0  0  0  0  0  0  0  0
    8.0469   -3.7515   -0.1504 H   0  0  0  0  0  0  0  0  0  0  0  0
    7.8079    0.7014    1.7221 H   0  0  0  0  0  0  0  0  0  0  0  0
    7.5778    2.4162    2.0855 H   0  0  0  0  0  0  0  0  0  0  0  0
    7.9979    1.9463    0.4499 H   0  0  0  0  0  0  0  0  0  0  0  0
  1  2  1  0
  2  3  2  0
  3  4  1  0
  4  5  2  0
  5  6  1  0
  6  7  2  0
  7  8  1  0
  8  9  1  0
  9 10  1  0
 10 11  1  0
  9 12  1  1
  9 13  1  0
 13 14  1  0
 14 15  1  0
 15 16  1  0
 16 17  1  0
 16 18  1  0
 18 19  1  0
 19 20  1  0
 20 21  1  0
 21 22  1  0
 21 23  1  0
 23 24  1  0
 24 25  1  0
 25 26  1  0
 26 27  1  0
 26 28  1  0
  5 29  1  0
  4 30  1  0
 30 31  1  0
 31 32  2  0
 31 33  1  0
 33 34  2  0
 34 35  1  0
 35 36  2  0
 36 37  1  0
 37 38  2  0
  3 39  1  0
  7  2  1  0
 11  6  1  0
 38 33  1  0
  1 40  1  0
  1 41  1  0
  1 42  1  0
 10 43  1  0
 10 44  1  0
 11 45  1  0
 11 46  1  0
 12 47  1  0
 12 48  1  0
 12 49  1  0
 13 50  1  0
 13 51  1  0
 14 52  1  0
 14 53  1  0
 15 54  1  0
 15 55  1  0
 16 56  1  1
 17 57  1  0
 17 58  1  0
 17 59  1  0
 18 60  1  0
 18 61  1  0
 19 62  1  0
 19 63  1  0
 20 64  1  0
 20 65  1  0
 21 66  1  6
 22 67  1  0
 22 68  1  0
 22 69  1  0
 23 70  1  0
 23 71  1  0
 24 72  1  0
 24 73  1  0
 25 74  1  0
 25 75  1  0
 26 76  1  0
 27 77  1  0
 27 78  1  0
 27 79  1  0
 28 80  1  0
 28 81  1  0
 28 82  1  0
 29 83  1  0
 29 84  1  0
 29 85  1  0
 34 86  1  0
 36 87  1  0
 37 88  1  0
 38 89  1  0
 39 90  1  0
 39 91  1  0
 39 92  1  0
M  END
$$$$
