
     RDKit          3D

 39 41  0  0  0  0  0  0  0  0999 V2000
    6.8878   -0.8046    0.7414 C   0  0  0  0  0  0  0  0  0  0  0  0
    6.4323    0.5126    0.6704 C   0  0  0  0  0  0  0  0  0  0  0  0
    5.0750    0.7637    0.4393 C   0  0  0  0  0  0  0  0  0  0  0  0
    4.1620   -0.2933    0.2759 C   0  0  0  0  0  0  0  0  0  0  0  0
    4.6562   -1.6104    0.3463 C   0  0  0  0  0  0  0  0  0  0  0  0
    6.0069   -1.8723    0.5765 C   0  0  0  0  0  0  0  0  0  0  0  0
    2.7284   -0.0535    0.0639 C   0  0  0  0  0  0  0  0  0  0  0  0
    1.9754    0.7149    0.9789 C   0  0  0  0  0  0  0  0  0  0  0  0
    0.5970    0.8701    0.8198 C   0  0  0  0  0  0  0  0  0  0  0  0
   -0.0533    0.2934   -0.2730 C   0  0  0  0  0  0  0  0  0  0  0  0
    0.6782   -0.4091   -1.2317 C   0  0  0  0  0  0  0  0  0  0  0  0
    2.0607   -0.5902   -1.0496 C   0  0  0  0  0  0  0  0  0  0  0  0
   -1.4394    0.4136   -0.4587 N   0  0  0  0  0  0  0  0  0  0  0  0
   -2.3626    0.5259    0.5602 C   0  0  0  0  0  0  0  0  0  0  0  0
   -2.1557    0.3467    1.7683 O   0  0  0  0  0  0  0  0  0  0  0  0
   -3.7401    0.7392    0.1079 C   0  0  0  0  0  0  0  0  0  0  0  0
   -4.1568    2.0680   -0.0315 C   0  0  0  0  0  0  0  0  0  0  0  0
   -5.4807    2.3532   -0.3932 C   0  0  0  0  0  0  0  0  0  0  0  0
   -6.3796    1.3064   -0.6151 C   0  0  0  0  0  0  0  0  0  0  0  0
   -5.9536   -0.0183   -0.4735 C   0  0  0  0  0  0  0  0  0  0  0  0
   -4.6359   -0.3203   -0.1179 C   0  0  0  0  0  0  0  0  0  0  0  0
   -4.2731   -1.7576   -0.0303 C   0  0  0  0  0  0  0  0  0  0  0  0
   -5.0436   -2.6788    0.2024 O   0  0  0  0  0  0  0  0  0  0  0  0
   -3.0020   -1.9858   -0.4125 O   0  0  0  0  0  0  0  0  0  0  0  0
    7.9398   -1.0005    0.9244 H   0  0  0  0  0  0  0  0  0  0  0  0
    7.1269    1.3420    0.7844 H   0  0  0  0  0  0  0  0  0  0  0  0
    4.7385    1.7994    0.3820 H   0  0  0  0  0  0  0  0  0  0  0  0
    3.9749   -2.4547    0.2452 H   0  0  0  0  0  0  0  0  0  0  0  0
    6.3630   -2.8984    0.6261 H   0  0  0  0  0  0  0  0  0  0  0  0
    2.4586    1.1631    1.8445 H   0  0  0  0  0  0  0  0  0  0  0  0
    0.0521    1.4473    1.5700 H   0  0  0  0  0  0  0  0  0  0  0  0
    0.2030   -0.8831   -2.0890 H   0  0  0  0  0  0  0  0  0  0  0  0
    2.6172   -1.1628   -1.7919 H   0  0  0  0  0  0  0  0  0  0  0  0
   -1.8079    0.1005   -1.3501 H   0  0  0  0  0  0  0  0  0  0  0  0
   -3.4605    2.8853    0.1709 H   0  0  0  0  0  0  0  0  0  0  0  0
   -5.8043    3.3878   -0.5064 H   0  0  0  0  0  0  0  0  0  0  0  0
   -7.4052    1.5337   -0.9246 H   0  0  0  0  0  0  0  0  0  0  0  0
   -6.6716   -0.8134   -0.6643 H   0  0  0  0  0  0  0  0  0  0  0  0
   -2.9080   -2.9597   -0.3212 H   0  0  0  0  0  0  0  0  0  0  0  0
  1  2  2  0
  2  3  1  0
  3  4  2  0
  4  5  1  0
  5  6  2  0
  4  7  1  0
  7  8  2  0
  8  9  1  0
  9 10  2  0
 10 11  1  0
 11 12  2  0
 10 13  1  0
 13 14  1  0
 14 15  2  0
 14 16  1  0
 16 17  2  0
 17 18  1  0
 18 19  2  0
 19 20  1  0
 20 21  2  0
 21 22  1  0
 22 23  2  0
 22 24  1  0
  6  1  1  0
 12  7  1  0
 21 16  1  0
  1 25  1  0
  2 26  1  0
  3 27  1  0
  5 28  1  0
  6 29  1  0
  8 30  1  0
  9 31  1  0
 11 32  1  0
 12 33  1  0
 13 34  1  0
 17 35  1  0
 18 36  1  0
 19 37  1  0
 20 38  1  0
 24 39  1  0
M  END
$$$$
