
     RDKit          3D

 43 45  0  0  0  0  0  0  0  0999 V2000
    4.4783   -1.6905    2.1923 C   0  0  0  0  0  0  0  0  0  0  0  0
    3.8018   -1.8307    0.8286 C   0  0  0  0  0  0  0  0  0  0  0  0
    4.2978   -3.0717    0.0863 C   0  0  0  0  0  0  0  0  0  0  0  0
    2.3506   -1.8210    0.9469 N   0  0  0  0  0  0  0  0  0  0  0  0
    1.5775   -2.7385    1.6121 C   0  0  0  0  0  0  0  0  0  0  0  0
    0.2941   -2.4549    1.5314 N   0  0  0  0  0  0  0  0  0  0  0  0
    0.2391   -1.3017    0.7748 C   0  0  0  0  0  0  0  0  0  0  0  0
   -0.8392   -0.5141    0.3383 C   0  0  0  0  0  0  0  0  0  0  0  0
   -0.5401    0.5903   -0.3986 N   0  0  0  0  0  0  0  0  0  0  0  0
    0.7397    0.8905   -0.6948 C   0  0  0  0  0  0  0  0  0  0  0  0
    1.8226    0.1922   -0.3182 N   0  0  0  0  0  0  0  0  0  0  0  0
    1.5053   -0.8884    0.4077 C   0  0  0  0  0  0  0  0  0  0  0  0
    1.0194    2.0245   -1.4551 N   0  0  0  0  0  0  0  0  0  0  0  0
    0.1289    3.1511   -1.1782 C   0  0  0  0  0  0  0  0  0  0  0  0
    0.5672    4.3444   -2.0346 C   0  0  0  0  0  0  0  0  0  0  0  0
    0.5563    3.9897   -3.4172 O   0  0  0  0  0  0  0  0  0  0  0  0
   -2.1496   -0.8708    0.6915 N   0  0  0  0  0  0  0  0  0  0  0  0
   -3.4064   -0.3757    0.3165 C   0  0  0  0  0  0  0  0  0  0  0  0
   -4.5435   -0.8601    0.9828 C   0  0  0  0  0  0  0  0  0  0  0  0
   -5.8173   -0.3782    0.6733 C   0  0  0  0  0  0  0  0  0  0  0  0
   -5.9863    0.6004   -0.3000 C   0  0  0  0  0  0  0  0  0  0  0  0
   -4.8699    1.1001   -0.9637 C   0  0  0  0  0  0  0  0  0  0  0  0
   -3.5935    0.6176   -0.6515 C   0  0  0  0  0  0  0  0  0  0  0  0
   -7.1902   -0.9984    1.5068 Cl  0  0  0  0  0  0  0  0  0  0  0  0
    5.5644   -1.6084    2.0782 H   0  0  0  0  0  0  0  0  0  0  0  0
    4.2727   -2.5520    2.8370 H   0  0  0  0  0  0  0  0  0  0  0  0
    4.1251   -0.7936    2.7130 H   0  0  0  0  0  0  0  0  0  0  0  0
    4.0781   -0.9541    0.2299 H   0  0  0  0  0  0  0  0  0  0  0  0
    3.8157   -3.1592   -0.8936 H   0  0  0  0  0  0  0  0  0  0  0  0
    4.0852   -3.9898    0.6448 H   0  0  0  0  0  0  0  0  0  0  0  0
    5.3799   -3.0193   -0.0738 H   0  0  0  0  0  0  0  0  0  0  0  0
    1.9982   -3.5889    2.1344 H   0  0  0  0  0  0  0  0  0  0  0  0
    2.0054    2.2098   -1.2930 H   0  0  0  0  0  0  0  0  0  0  0  0
    0.1601    3.4283   -0.1181 H   0  0  0  0  0  0  0  0  0  0  0  0
   -0.9004    2.8919   -1.4532 H   0  0  0  0  0  0  0  0  0  0  0  0
    1.5842    4.6572   -1.7764 H   0  0  0  0  0  0  0  0  0  0  0  0
   -0.1062    5.1941   -1.8902 H   0  0  0  0  0  0  0  0  0  0  0  0
    0.8002    3.0422   -3.4455 H   0  0  0  0  0  0  0  0  0  0  0  0
   -2.1576   -1.7141    1.2584 H   0  0  0  0  0  0  0  0  0  0  0  0
   -4.4384   -1.6182    1.7545 H   0  0  0  0  0  0  0  0  0  0  0  0
   -6.9759    0.9762   -0.5432 H   0  0  0  0  0  0  0  0  0  0  0  0
   -4.9849    1.8653   -1.7271 H   0  0  0  0  0  0  0  0  0  0  0  0
   -2.7486    1.0266   -1.1974 H   0  0  0  0  0  0  0  0  0  0  0  0
  1  2  1  0
  2  3  1  0
  2  4  1  0
  4  5  1  0
  5  6  2  0
  6  7  1  0
  7  8  2  0
  8  9  1  0
  9 10  2  0
 10 11  1  0
 11 12  2  0
 10 13  1  0
 13 14  1  0
 14 15  1  0
 15 16  1  0
  8 17  1  0
 17 18  1  0
 18 19  2  0
 19 20  1  0
 20 21  2  0
 21 22  1  0
 22 23  2  0
 20 24  1  0
 12  4  1  0
 12  7  1  0
 23 18  1  0
  1 25  1  0
  1 26  1  0
  1 27  1  0
  2 28  1  0
  3 29  1  0
  3 30  1  0
  3 31  1  0
  5 32  1  0
 13 33  1  0
 14 34  1  0
 14 35  1  0
 15 36  1  0
 15 37  1  0
 16 38  1  0
 17 39  1  0
 19 40  1  0
 21 41  1  0
 22 42  1  0
 23 43  1  0
M  END
$$$$
