
     RDKit          3D

 42 44  0  0  0  0  0  0  0  0999 V2000
   -2.6687    2.8754    3.1203 C   0  0  0  0  0  0  0  0  0  0  0  0
   -1.7316    2.1237    2.1922 C   0  0  0  0  0  0  0  0  0  0  0  0
   -2.5264    1.4127    1.2470 O   0  0  0  0  0  0  0  0  0  0  0  0
   -1.8891    0.5643    0.3788 C   0  0  0  0  0  0  0  0  0  0  0  0
   -2.7129   -0.2691   -0.3934 C   0  0  0  0  0  0  0  0  0  0  0  0
   -2.1282   -1.1727   -1.2865 C   0  0  0  0  0  0  0  0  0  0  0  0
   -0.7522   -1.2564   -1.4572 C   0  0  0  0  0  0  0  0  0  0  0  0
    0.0765   -0.4064   -0.7161 C   0  0  0  0  0  0  0  0  0  0  0  0
   -0.5051    0.4968    0.2109 C   0  0  0  0  0  0  0  0  0  0  0  0
    1.4596   -0.5421   -0.9589 C   0  0  0  0  0  0  0  0  0  0  0  0
    1.9446   -1.4513   -1.8231 N   0  0  0  0  0  0  0  0  0  0  0  0
    1.0526   -2.2104   -2.4629 C   0  0  0  0  0  0  0  0  0  0  0  0
   -0.2757   -2.1510   -2.3269 N   0  0  0  0  0  0  0  0  0  0  0  0
    2.3610    0.3280   -0.2846 N   0  0  0  0  0  0  0  0  0  0  0  0
    3.7642    0.2095   -0.1577 C   0  0  0  0  0  0  0  0  0  0  0  0
    4.5260    1.3624    0.0875 C   0  0  0  0  0  0  0  0  0  0  0  0
    5.9061    1.2753    0.2861 C   0  0  0  0  0  0  0  0  0  0  0  0
    6.5492    0.0418    0.2700 C   0  0  0  0  0  0  0  0  0  0  0  0
    5.8010   -1.1142    0.0655 C   0  0  0  0  0  0  0  0  0  0  0  0
    4.4192   -1.0287   -0.1332 C   0  0  0  0  0  0  0  0  0  0  0  0
    6.9087    2.8501    0.5900 Br  0  0  0  0  0  0  0  0  0  0  0  0
   -4.0615   -0.1502   -0.1757 O   0  0  0  0  0  0  0  0  0  0  0  0
   -4.9742   -0.7419   -1.0973 C   0  0  0  0  0  0  0  0  0  0  0  0
   -5.3920   -2.1218   -0.6206 C   0  0  0  0  0  0  0  0  0  0  0  0
   -3.3005    3.5670    2.5531 H   0  0  0  0  0  0  0  0  0  0  0  0
   -2.1060    3.4425    3.8671 H   0  0  0  0  0  0  0  0  0  0  0  0
   -3.3399    2.1804    3.6358 H   0  0  0  0  0  0  0  0  0  0  0  0
   -1.0865    2.8439    1.6764 H   0  0  0  0  0  0  0  0  0  0  0  0
   -1.1239    1.4288    2.7834 H   0  0  0  0  0  0  0  0  0  0  0  0
   -2.7355   -1.8564   -1.8709 H   0  0  0  0  0  0  0  0  0  0  0  0
    0.1498    1.1294    0.8003 H   0  0  0  0  0  0  0  0  0  0  0  0
    1.4427   -2.9421   -3.1621 H   0  0  0  0  0  0  0  0  0  0  0  0
    2.0863    1.2860   -0.4780 H   0  0  0  0  0  0  0  0  0  0  0  0
    4.0448    2.3358    0.1200 H   0  0  0  0  0  0  0  0  0  0  0  0
    7.6220   -0.0311    0.4252 H   0  0  0  0  0  0  0  0  0  0  0  0
    6.2866   -2.0866    0.0669 H   0  0  0  0  0  0  0  0  0  0  0  0
    3.8576   -1.9504   -0.2639 H   0  0  0  0  0  0  0  0  0  0  0  0
   -4.5945   -0.7515   -2.1250 H   0  0  0  0  0  0  0  0  0  0  0  0
   -5.8611   -0.0982   -1.1119 H   0  0  0  0  0  0  0  0  0  0  0  0
   -6.1392   -2.5533   -1.2927 H   0  0  0  0  0  0  0  0  0  0  0  0
   -5.8167   -2.0658    0.3873 H   0  0  0  0  0  0  0  0  0  0  0  0
   -4.5373   -2.8024   -0.5653 H   0  0  0  0  0  0  0  0  0  0  0  0
  1  2  1  0
  2  3  1  0
  3  4  1  0
  4  5  2  0
  5  6  1  0
  6  7  2  0
  7  8  1  0
  8  9  2  0
  8 10  1  0
 10 11  2  0
 11 12  1  0
 12 13  2  0
 10 14  1  0
 14 15  1  0
 15 16  2  0
 16 17  1  0
 17 18  2  0
 18 19  1  0
 19 20  2  0
 17 21  1  0
  5 22  1  0
 22 23  1  0
 23 24  1  0
  9  4  1  0
 13  7  1  0
 20 15  1  0
  1 25  1  0
  1 26  1  0
  1 27  1  0
  2 28  1  0
  2 29  1  0
  6 30  1  0
  9 31  1  0
 12 32  1  0
 14 33  1  0
 16 34  1  0
 18 35  1  0
 19 36  1  0
 20 37  1  0
 23 38  1  0
 23 39  1  0
 24 40  1  0
 24 41  1  0
 24 42  1  0
M  END
$$$$
