
     RDKit          3D

 44 45  0  0  0  0  0  0  0  0999 V2000
   -3.6164   -2.2088    1.6713 C   0  0  0  0  0  0  0  0  0  0  0  0
   -2.8383   -1.3717    0.6557 C   0  0  0  0  0  0  0  0  0  0  0  0
   -1.3333   -1.4600    0.9290 C   0  0  0  0  0  0  0  0  0  0  0  0
   -0.5252   -0.5917   -0.0380 C   0  0  0  0  0  0  0  0  0  0  0  0
   -1.0064    0.8627    0.0049 C   0  0  0  0  0  0  0  0  0  0  0  0
   -2.5188    1.0202   -0.2592 C   0  0  0  0  0  0  0  0  0  0  0  0
   -3.3151    0.0897    0.6854 C   0  0  0  0  0  0  0  0  0  0  0  0
   -2.8487    0.7119   -1.7323 C   0  0  0  0  0  0  0  0  0  0  0  0
   -2.9247    2.4801    0.0193 C   0  0  0  0  0  0  0  0  0  0  0  0
    0.8599   -0.5908    0.3583 O   0  0  0  0  0  0  0  0  0  0  0  0
    1.6221   -1.6214   -0.0996 C   0  0  0  0  0  0  0  0  0  0  0  0
    1.2090   -2.5699   -0.7614 O   0  0  0  0  0  0  0  0  0  0  0  0
    3.0787   -1.5080    0.3746 C   0  0  0  0  0  0  0  0  0  0  0  0
    3.7075   -0.1761    0.0226 C   0  0  0  0  0  0  0  0  0  0  0  0
    3.7922    0.8436    0.9836 C   0  0  0  0  0  0  0  0  0  0  0  0
    4.3399    2.0854    0.6558 C   0  0  0  0  0  0  0  0  0  0  0  0
    4.8067    2.3242   -0.6351 C   0  0  0  0  0  0  0  0  0  0  0  0
    4.7265    1.3227   -1.6001 C   0  0  0  0  0  0  0  0  0  0  0  0
    4.1784    0.0809   -1.2749 C   0  0  0  0  0  0  0  0  0  0  0  0
    3.8846   -2.5590   -0.1701 O   0  0  0  0  0  0  0  0  0  0  0  0
   -4.6906   -2.1732    1.4616 H   0  0  0  0  0  0  0  0  0  0  0  0
   -3.3021   -3.2571    1.6321 H   0  0  0  0  0  0  0  0  0  0  0  0
   -3.4582   -1.8461    2.6927 H   0  0  0  0  0  0  0  0  0  0  0  0
   -3.0381   -1.7930   -0.3371 H   0  0  0  0  0  0  0  0  0  0  0  0
   -1.0003   -2.5027    0.8570 H   0  0  0  0  0  0  0  0  0  0  0  0
   -1.1147   -1.1551    1.9615 H   0  0  0  0  0  0  0  0  0  0  0  0
   -0.6163   -0.9695   -1.0635 H   0  0  0  0  0  0  0  0  0  0  0  0
   -0.4256    1.4561   -0.7140 H   0  0  0  0  0  0  0  0  0  0  0  0
   -0.7559    1.2848    0.9888 H   0  0  0  0  0  0  0  0  0  0  0  0
   -3.2283    0.4655    1.7146 H   0  0  0  0  0  0  0  0  0  0  0  0
   -4.3833    0.1308    0.4348 H   0  0  0  0  0  0  0  0  0  0  0  0
   -2.3019    1.3831   -2.4045 H   0  0  0  0  0  0  0  0  0  0  0  0
   -2.5916   -0.3126   -2.0156 H   0  0  0  0  0  0  0  0  0  0  0  0
   -3.9184    0.8462   -1.9303 H   0  0  0  0  0  0  0  0  0  0  0  0
   -3.9961    2.6327   -0.1532 H   0  0  0  0  0  0  0  0  0  0  0  0
   -2.3787    3.1734   -0.6304 H   0  0  0  0  0  0  0  0  0  0  0  0
   -2.7124    2.7612    1.0570 H   0  0  0  0  0  0  0  0  0  0  0  0
    3.0783   -1.6588    1.4603 H   0  0  0  0  0  0  0  0  0  0  0  0
    3.4284    0.6794    1.9956 H   0  0  0  0  0  0  0  0  0  0  0  0
    4.4026    2.8671    1.4084 H   0  0  0  0  0  0  0  0  0  0  0  0
    5.2352    3.2902   -0.8889 H   0  0  0  0  0  0  0  0  0  0  0  0
    5.0939    1.5059   -2.6065 H   0  0  0  0  0  0  0  0  0  0  0  0
    4.1285   -0.6939   -2.0379 H   0  0  0  0  0  0  0  0  0  0  0  0
    3.2669   -3.2782   -0.4052 H   0  0  0  0  0  0  0  0  0  0  0  0
  1  2  1  0
  2  3  1  0
  3  4  1  0
  4  5  1  0
  5  6  1  0
  6  7  1  0
  6  8  1  0
  6  9  1  0
  4 10  1  0
 10 11  1  0
 11 12  2  0
 11 13  1  0
 13 14  1  0
 14 15  2  0
 15 16  1  0
 16 17  2  0
 17 18  1  0
 18 19  2  0
 13 20  1  0
  7  2  1  0
 19 14  1  0
  1 21  1  0
  1 22  1  0
  1 23  1  0
  2 24  1  0
  3 25  1  0
  3 26  1  0
  4 27  1  0
  5 28  1  0
  5 29  1  0
  7 30  1  0
  7 31  1  0
  8 32  1  0
  8 33  1  0
  8 34  1  0
  9 35  1  0
  9 36  1  0
  9 37  1  0
 13 38  1  0
 15 39  1  0
 16 40  1  0
 17 41  1  0
 18 42  1  0
 19 43  1  0
 20 44  1  0
M  END
$$$$
