
     RDKit          3D

 29 29  0  0  0  0  0  0  0  0999 V2000
   -3.1429    0.3221   -0.9138 C   0  0  0  0  0  0  0  0  0  0  0  0
   -2.6556    1.2762    0.1787 C   0  0  0  0  0  0  0  0  0  0  0  0
   -1.1984    1.2617    0.2676 N   0  0  0  0  0  0  0  0  0  0  0  0
   -0.5686   -0.2279    0.5595 P   0  0  0  0  0  5  0  0  0  0  0  0
   -0.9353   -0.7950    1.8952 O   0  0  0  0  0  0  0  0  0  0  0  0
   -1.2094   -1.1000   -0.6394 O   0  0  0  0  0  0  0  0  0  0  0  0
   -2.6287   -1.0983   -0.6926 C   0  0  0  0  0  0  0  0  0  0  0  0
    1.0301   -0.1072    0.2331 N   0  0  0  0  0  0  0  0  0  0  0  0
    1.4796    0.2705   -1.1094 C   0  0  0  0  0  0  0  0  0  0  0  0
    2.6497   -0.5839   -1.6033 C   0  0  0  0  0  0  0  0  0  0  0  0
    3.1118   -0.0937   -3.2548 Cl  0  0  0  0  0  0  0  0  0  0  0  0
    1.9087    0.4156    1.2894 C   0  0  0  0  0  0  0  0  0  0  0  0
    2.2003   -0.5861    2.4150 C   0  0  0  0  0  0  0  0  0  0  0  0
    3.1272   -1.9884    1.8169 Cl  0  0  0  0  0  0  0  0  0  0  0  0
   -4.2378    0.3201   -0.9438 H   0  0  0  0  0  0  0  0  0  0  0  0
   -2.7862    0.6858   -1.8858 H   0  0  0  0  0  0  0  0  0  0  0  0
   -3.0873    0.9956    1.1461 H   0  0  0  0  0  0  0  0  0  0  0  0
   -2.9946    2.2944   -0.0397 H   0  0  0  0  0  0  0  0  0  0  0  0
   -0.8245    1.6453   -0.5912 H   0  0  0  0  0  0  0  0  0  0  0  0
   -2.9373   -1.7420   -1.5219 H   0  0  0  0  0  0  0  0  0  0  0  0
   -3.0294   -1.5276    0.2320 H   0  0  0  0  0  0  0  0  0  0  0  0
    1.7290    1.3389   -1.1406 H   0  0  0  0  0  0  0  0  0  0  0  0
    0.6552    0.1397   -1.8211 H   0  0  0  0  0  0  0  0  0  0  0  0
    3.5367   -0.4675   -0.9753 H   0  0  0  0  0  0  0  0  0  0  0  0
    2.3785   -1.6437   -1.6361 H   0  0  0  0  0  0  0  0  0  0  0  0
    1.4491    1.3129    1.7216 H   0  0  0  0  0  0  0  0  0  0  0  0
    2.8719    0.7484    0.8819 H   0  0  0  0  0  0  0  0  0  0  0  0
    1.2963   -0.9607    2.8974 H   0  0  0  0  0  0  0  0  0  0  0  0
    2.8120   -0.1053    3.1848 H   0  0  0  0  0  0  0  0  0  0  0  0
  1  2  1  0
  2  3  1  0
  3  4  1  0
  4  5  2  0
  4  6  1  0
  6  7  1  0
  4  8  1  0
  8  9  1  0
  9 10  1  0
 10 11  1  0
  8 12  1  0
 12 13  1  0
 13 14  1  0
  7  1  1  0
  1 15  1  0
  1 16  1  0
  2 17  1  0
  2 18  1  0
  3 19  1  0
  7 20  1  0
  7 21  1  0
  9 22  1  0
  9 23  1  0
 10 24  1  0
 10 25  1  0
 12 26  1  0
 12 27  1  0
 13 28  1  0
 13 29  1  0
M  END
$$$$
