
     RDKit          3D

  8  7  0  0  0  0  0  0  0  0999 V2000
   -0.8849   -0.2108    0.1884 C   0  0  0  0  0  0  0  0  0  0  0  0
    0.5073    0.2844   -0.1077 C   0  0  0  0  0  0  0  0  0  0  0  0
    0.9116    1.4313   -0.1916 O   0  0  0  0  0  0  0  0  0  0  0  0
    1.3709   -0.7407   -0.2941 O   0  0  0  0  0  0  0  0  0  0  0  0
   -2.0072    1.1423    0.4308 Cl  0  0  0  0  0  0  0  0  0  0  0  0
   -1.2496   -0.8041   -0.6536 H   0  0  0  0  0  0  0  0  0  0  0  0
   -0.8746   -0.8077    1.1036 H   0  0  0  0  0  0  0  0  0  0  0  0
    2.2264   -0.2948   -0.4758 H   0  0  0  0  0  0  0  0  0  0  0  0
  1  2  1  0
  2  3  2  0
  2  4  1  0
  1  5  1  0
  1  6  1  0
  1  7  1  0
  4  8  1  0
M  END
$$$$
