
     RDKit          3D

 57 59  0  0  0  0  0  0  0  0999 V2000
    6.0367    1.1705    0.7033 C   0  0  0  0  0  0  0  0  0  0  0  0
    6.4443    0.8850   -0.6703 N   0  0  0  0  0  0  0  0  0  0  0  0
    6.7920   -0.5244   -0.8290 C   0  0  0  0  0  0  0  0  0  0  0  0
    5.4517    1.3457   -1.6633 C   0  0  0  0  0  0  0  0  0  0  0  0
    4.0649    0.6648   -1.7165 C   0  0  0  0  0  0  0  0  0  0  0  0
    3.3059    0.9934   -0.5513 O   0  0  0  0  0  0  0  0  0  0  0  0
    2.0363    0.4920   -0.4718 C   0  0  0  0  0  0  0  0  0  0  0  0
    1.3111   -0.0748   -1.5202 C   0  0  0  0  0  0  0  0  0  0  0  0
   -0.0076   -0.4973   -1.3084 C   0  0  0  0  0  0  0  0  0  0  0  0
   -0.6187   -0.3701   -0.0506 C   0  0  0  0  0  0  0  0  0  0  0  0
    0.1423    0.1490    1.0076 C   0  0  0  0  0  0  0  0  0  0  0  0
    1.4493    0.6003    0.7917 C   0  0  0  0  0  0  0  0  0  0  0  0
   -2.0406   -0.8201    0.1280 C   0  0  0  0  0  0  0  0  0  0  0  0
   -3.0049    0.0229    0.6094 C   0  0  0  0  0  0  0  0  0  0  0  0
   -4.4856   -0.3412    0.8179 C   0  0  0  0  0  0  0  0  0  0  0  0
   -5.0066   -0.1760    2.2461 C   0  0  0  0  0  0  0  0  0  0  0  0
   -6.6435   -0.8765    2.4081 Cl  0  0  0  0  0  0  0  0  0  0  0  0
   -2.7222    1.4651    0.8676 C   0  0  0  0  0  0  0  0  0  0  0  0
   -2.5333    2.3400   -0.2153 C   0  0  0  0  0  0  0  0  0  0  0  0
   -2.2348    3.6859    0.0027 C   0  0  0  0  0  0  0  0  0  0  0  0
   -2.1441    4.1789    1.3059 C   0  0  0  0  0  0  0  0  0  0  0  0
   -2.3341    3.3223    2.3931 C   0  0  0  0  0  0  0  0  0  0  0  0
   -2.6136    1.9727    2.1747 C   0  0  0  0  0  0  0  0  0  0  0  0
   -2.4110   -2.1957   -0.3157 C   0  0  0  0  0  0  0  0  0  0  0  0
   -3.2348   -2.3873   -1.4400 C   0  0  0  0  0  0  0  0  0  0  0  0
   -3.5364   -3.6747   -1.8897 C   0  0  0  0  0  0  0  0  0  0  0  0
   -2.9986   -4.7816   -1.2350 C   0  0  0  0  0  0  0  0  0  0  0  0
   -2.1643   -4.6071   -0.1286 C   0  0  0  0  0  0  0  0  0  0  0  0
   -1.8686   -3.3178    0.3278 C   0  0  0  0  0  0  0  0  0  0  0  0
    5.1830    0.5655    1.0340 H   0  0  0  0  0  0  0  0  0  0  0  0
    5.7789    2.2300    0.8227 H   0  0  0  0  0  0  0  0  0  0  0  0
    6.8681    0.9771    1.3907 H   0  0  0  0  0  0  0  0  0  0  0  0
    7.6178   -0.7882   -0.1587 H   0  0  0  0  0  0  0  0  0  0  0  0
    7.1389   -0.7262   -1.8486 H   0  0  0  0  0  0  0  0  0  0  0  0
    5.9551   -1.1963   -0.6041 H   0  0  0  0  0  0  0  0  0  0  0  0
    5.9101    1.2402   -2.6581 H   0  0  0  0  0  0  0  0  0  0  0  0
    5.3022    2.4253   -1.5225 H   0  0  0  0  0  0  0  0  0  0  0  0
    3.5511    1.0456   -2.6068 H   0  0  0  0  0  0  0  0  0  0  0  0
    4.1686   -0.4209   -1.8140 H   0  0  0  0  0  0  0  0  0  0  0  0
    1.7279   -0.1979   -2.5152 H   0  0  0  0  0  0  0  0  0  0  0  0
   -0.5609   -0.9260   -2.1436 H   0  0  0  0  0  0  0  0  0  0  0  0
   -0.2858    0.2269    2.0054 H   0  0  0  0  0  0  0  0  0  0  0  0
    2.0090    1.0348    1.6202 H   0  0  0  0  0  0  0  0  0  0  0  0
   -4.6863   -1.3765    0.5247 H   0  0  0  0  0  0  0  0  0  0  0  0
   -5.0918    0.2744    0.1389 H   0  0  0  0  0  0  0  0  0  0  0  0
   -4.3634   -0.6859    2.9725 H   0  0  0  0  0  0  0  0  0  0  0  0
   -5.0993    0.8794    2.5187 H   0  0  0  0  0  0  0  0  0  0  0  0
   -2.5898    1.9630   -1.2356 H   0  0  0  0  0  0  0  0  0  0  0  0
   -2.0680    4.3497   -0.8467 H   0  0  0  0  0  0  0  0  0  0  0  0
   -1.9220    5.2283    1.4722 H   0  0  0  0  0  0  0  0  0  0  0  0
   -2.2619    3.7097    3.4083 H   0  0  0  0  0  0  0  0  0  0  0  0
   -2.7317    1.3167    3.0363 H   0  0  0  0  0  0  0  0  0  0  0  0
   -3.6491   -1.5296   -1.9679 H   0  0  0  0  0  0  0  0  0  0  0  0
   -4.1857   -3.8117   -2.7561 H   0  0  0  0  0  0  0  0  0  0  0  0
   -3.2189   -5.7857   -1.5933 H   0  0  0  0  0  0  0  0  0  0  0  0
   -1.7286   -5.4748    0.3706 H   0  0  0  0  0  0  0  0  0  0  0  0
   -1.1985   -3.1912    1.1779 H   0  0  0  0  0  0  0  0  0  0  0  0
  1  2  1  0
  2  3  1  0
  2  4  1  0
  4  5  1  0
  5  6  1  0
  6  7  1  0
  7  8  2  0
  8  9  1  0
  9 10  2  0
 10 11  1  0
 11 12  2  0
 10 13  1  0
 13 14  2  0
 14 15  1  0
 15 16  1  0
 16 17  1  0
 14 18  1  0
 18 19  2  0
 19 20  1  0
 20 21  2  0
 21 22  1  0
 22 23  2  0
 13 24  1  0
 24 25  2  0
 25 26  1  0
 26 27  2  0
 27 28  1  0
 28 29  2  0
 12  7  1  0
 23 18  1  0
 29 24  1  0
  1 30  1  0
  1 31  1  0
  1 32  1  0
  3 33  1  0
  3 34  1  0
  3 35  1  0
  4 36  1  0
  4 37  1  0
  5 38  1  0
  5 39  1  0
  8 40  1  0
  9 41  1  0
 11 42  1  0
 12 43  1  0
 15 44  1  0
 15 45  1  0
 16 46  1  0
 16 47  1  0
 19 48  1  0
 20 49  1  0
 21 50  1  0
 22 51  1  0
 23 52  1  0
 25 53  1  0
 26 54  1  0
 27 55  1  0
 28 56  1  0
 29 57  1  0
M  END
$$$$
