
     RDKit          3D

 78 79  0  0  0  0  0  0  0  0999 V2000
    6.0351    1.1589    0.7088 C   0  0  0  0  0  0  0  0  0  0  0  0
    6.4398    0.8724   -0.6641 N   0  0  0  0  0  0  0  0  0  0  0  0
    6.7681   -0.5392   -0.8272 C   0  0  0  0  0  0  0  0  0  0  0  0
    5.4597    1.3515   -1.6558 C   0  0  0  0  0  0  0  0  0  0  0  0
    4.0633    0.6851   -1.7178 C   0  0  0  0  0  0  0  0  0  0  0  0
    3.3053    1.0023   -0.5502 O   0  0  0  0  0  0  0  0  0  0  0  0
    2.0350    0.4979   -0.4722 C   0  0  0  0  0  0  0  0  0  0  0  0
    1.3130   -0.0732   -1.5225 C   0  0  0  0  0  0  0  0  0  0  0  0
   -0.0018   -0.5008   -1.3132 C   0  0  0  0  0  0  0  0  0  0  0  0
   -0.6162   -0.3694   -0.0540 C   0  0  0  0  0  0  0  0  0  0  0  0
    0.1381    0.1526    1.0022 C   0  0  0  0  0  0  0  0  0  0  0  0
    1.4467    0.6010    0.7881 C   0  0  0  0  0  0  0  0  0  0  0  0
   -2.0416   -0.8199    0.1236 C   0  0  0  0  0  0  0  0  0  0  0  0
   -3.0079    0.0256    0.6072 C   0  0  0  0  0  0  0  0  0  0  0  0
   -4.4836   -0.3406    0.8205 C   0  0  0  0  0  0  0  0  0  0  0  0
   -5.0050   -0.1880    2.2517 C   0  0  0  0  0  0  0  0  0  0  0  0
   -6.6346   -0.8846    2.4050 Cl  0  0  0  0  0  0  0  0  0  0  0  0
   -2.7186    1.4688    0.8713 C   0  0  0  0  0  0  0  0  0  0  0  0
   -2.5087    2.3416   -0.2117 C   0  0  0  0  0  0  0  0  0  0  0  0
   -2.2193    3.6837    0.0074 C   0  0  0  0  0  0  0  0  0  0  0  0
   -2.1351    4.1758    1.3119 C   0  0  0  0  0  0  0  0  0  0  0  0
   -2.3286    3.3226    2.3968 C   0  0  0  0  0  0  0  0  0  0  0  0
   -2.6175    1.9710    2.1764 C   0  0  0  0  0  0  0  0  0  0  0  0
   -2.4159   -2.1934   -0.3209 C   0  0  0  0  0  0  0  0  0  0  0  0
   -3.2442   -2.3829   -1.4420 C   0  0  0  0  0  0  0  0  0  0  0  0
   -3.5420   -3.6651   -1.8965 C   0  0  0  0  0  0  0  0  0  0  0  0
   -3.0037   -4.7781   -1.2424 C   0  0  0  0  0  0  0  0  0  0  0  0
   -2.1593   -4.6037   -0.1373 C   0  0  0  0  0  0  0  0  0  0  0  0
   -1.8631   -3.3178    0.3153 C   0  0  0  0  0  0  0  0  0  0  0  0
   -0.6367   -0.9649    0.4989 C   0  0  0  0  0  0  0  0  0  0  0  0
   -2.1162   -0.7958    0.6934 C   0  0  0  0  0  0  0  0  0  0  0  0
   -2.6666   -0.1069    1.5385 O   0  0  0  0  0  0  0  0  0  0  0  0
   -2.8289   -1.4950   -0.2140 O   0  0  0  0  0  0  0  0  0  0  0  0
   -0.0630    0.1424   -0.3916 C   0  0  0  0  0  0  0  0  0  0  0  0
    1.4219   -0.0447   -0.7413 C   0  0  0  0  0  0  0  0  0  0  0  0
    2.3700   -0.1600    0.4178 C   0  0  0  0  0  0  0  0  0  0  0  0
    2.1334   -0.5920    1.5363 O   0  0  0  0  0  0  0  0  0  0  0  0
    3.6176    0.2159    0.0785 O   0  0  0  0  0  0  0  0  0  0  0  0
   -0.2472    1.5032    0.3284 C   0  0  0  0  0  0  0  0  0  0  0  0
    0.3720    1.8968    1.3081 O   0  0  0  0  0  0  0  0  0  0  0  0
   -1.2279    2.2601   -0.2110 O   0  0  0  0  0  0  0  0  0  0  0  0
   -0.7289    0.1294   -1.6734 O   0  0  0  0  0  0  0  0  0  0  0  0
    5.1811    0.5592    1.0350 H   0  0  0  0  0  0  0  0  0  0  0  0
    5.7775    2.2187    0.8349 H   0  0  0  0  0  0  0  0  0  0  0  0
    6.8639    0.9630    1.3977 H   0  0  0  0  0  0  0  0  0  0  0  0
    7.5890   -0.8251   -0.1610 H   0  0  0  0  0  0  0  0  0  0  0  0
    7.1063   -0.7515   -1.8478 H   0  0  0  0  0  0  0  0  0  0  0  0
    5.9174   -1.1903   -0.6036 H   0  0  0  0  0  0  0  0  0  0  0  0
    5.9199    1.2513   -2.6517 H   0  0  0  0  0  0  0  0  0  0  0  0
    5.3202    2.4315   -1.5088 H   0  0  0  0  0  0  0  0  0  0  0  0
    3.5537    1.0887   -2.6007 H   0  0  0  0  0  0  0  0  0  0  0  0
    4.1567   -0.4011   -1.8326 H   0  0  0  0  0  0  0  0  0  0  0  0
    1.7320   -0.1916   -2.5157 H   0  0  0  0  0  0  0  0  0  0  0  0
   -0.5568   -0.9325   -2.1482 H   0  0  0  0  0  0  0  0  0  0  0  0
   -0.2921    0.2425    1.9995 H   0  0  0  0  0  0  0  0  0  0  0  0
    2.0027    1.0419    1.6144 H   0  0  0  0  0  0  0  0  0  0  0  0
   -4.6798   -1.3762    0.5287 H   0  0  0  0  0  0  0  0  0  0  0  0
   -5.0904    0.2746    0.1445 H   0  0  0  0  0  0  0  0  0  0  0  0
   -4.3537   -0.7012    2.9673 H   0  0  0  0  0  0  0  0  0  0  0  0
   -5.0944    0.8633    2.5336 H   0  0  0  0  0  0  0  0  0  0  0  0
   -2.5468    1.9609   -1.2337 H   0  0  0  0  0  0  0  0  0  0  0  0
   -2.0446    4.3457   -0.8402 H   0  0  0  0  0  0  0  0  0  0  0  0
   -1.9110    5.2253    1.4837 H   0  0  0  0  0  0  0  0  0  0  0  0
   -2.2584    3.7020    3.4134 H   0  0  0  0  0  0  0  0  0  0  0  0
   -2.7477    1.3143    3.0377 H   0  0  0  0  0  0  0  0  0  0  0  0
   -3.6616   -1.5196   -1.9614 H   0  0  0  0  0  0  0  0  0  0  0  0
   -4.1937   -3.8009   -2.7589 H   0  0  0  0  0  0  0  0  0  0  0  0
   -3.2338   -5.7783   -1.5989 H   0  0  0  0  0  0  0  0  0  0  0  0
   -1.7266   -5.4715    0.3541 H   0  0  0  0  0  0  0  0  0  0  0  0
   -1.1863   -3.1969    1.1600 H   0  0  0  0  0  0  0  0  0  0  0  0
   -0.4591   -1.9579    0.0617 H   0  0  0  0  0  0  0  0  0  0  0  0
   -0.1983   -0.9832    1.5003 H   0  0  0  0  0  0  0  0  0  0  0  0
   -3.7560   -1.2615    0.0075 H   0  0  0  0  0  0  0  0  0  0  0  0
    1.5554   -0.9362   -1.3669 H   0  0  0  0  0  0  0  0  0  0  0  0
    1.7469    0.8027   -1.3618 H   0  0  0  0  0  0  0  0  0  0  0  0
    4.1193    0.0651    0.9038 H   0  0  0  0  0  0  0  0  0  0  0  0
   -1.2817    3.0407    0.3738 H   0  0  0  0  0  0  0  0  0  0  0  0
   -1.1260   -0.7581   -1.8384 H   0  0  0  0  0  0  0  0  0  0  0  0
  1  2  1  0
  2  3  1  0
  2  4  1  0
  4  5  1  0
  5  6  1  0
  6  7  1  0
  7  8  2  0
  8  9  1  0
  9 10  2  0
 10 11  1  0
 11 12  2  0
 10 13  1  0
 13 14  2  0
 14 15  1  0
 15 16  1  0
 16 17  1  0
 14 18  1  0
 18 19  2  0
 19 20  1  0
 20 21  2  0
 21 22  1  0
 22 23  2  0
 13 24  1  0
 24 25  2  0
 25 26  1  0
 26 27  2  0
 27 28  1  0
 28 29  2  0
 30 31  1  0
 31 32  2  0
 31 33  1  0
 30 34  1  0
 34 35  1  0
 35 36  1  0
 36 37  2  0
 36 38  1  0
 34 39  1  0
 39 40  2  0
 39 41  1  0
 34 42  1  0
 12  7  1  0
 23 18  1  0
 29 24  1  0
  1 43  1  0
  1 44  1  0
  1 45  1  0
  3 46  1  0
  3 47  1  0
  3 48  1  0
  4 49  1  0
  4 50  1  0
  5 51  1  0
  5 52  1  0
  8 53  1  0
  9 54  1  0
 11 55  1  0
 12 56  1  0
 15 57  1  0
 15 58  1  0
 16 59  1  0
 16 60  1  0
 19 61  1  0
 20 62  1  0
 21 63  1  0
 22 64  1  0
 23 65  1  0
 25 66  1  0
 26 67  1  0
 27 68  1  0
 28 69  1  0
 29 70  1  0
 30 71  1  0
 30 72  1  0
 33 73  1  0
 35 74  1  0
 35 75  1  0
 38 76  1  0
 41 77  1  0
 42 78  1  0
M  END
$$$$
