
     RDKit          3D

 24 23  0  0  0  0  0  0  0  0999 V2000
    0.7591   -1.2483   -0.4856 C   0  0  0  0  0  0  0  0  0  0  0  0
    0.4484    0.1656    0.0293 C   0  0  0  0  0  0  0  0  0  0  0  0
   -1.0293    0.5971   -0.1132 C   0  0  0  0  0  0  0  0  0  0  0  0
   -1.9737   -0.2614    0.7469 C   0  0  0  0  0  0  0  0  0  0  0  0
   -3.2466    0.2153    0.6694 F   0  0  0  0  0  0  0  0  0  0  0  0
   -1.6253   -0.2202    2.0563 F   0  0  0  0  0  0  0  0  0  0  0  0
   -1.1721    2.0302    0.4283 C   0  0  0  0  0  0  0  0  0  0  0  0
   -0.6363    2.5018    1.4183 O   0  0  0  0  0  0  0  0  0  0  0  0
   -1.9709    2.8175   -0.3324 O   0  0  0  0  0  0  0  0  0  0  0  0
   -1.4074    0.5701   -1.5710 N   0  0  0  0  0  0  0  0  0  0  0  0
    2.2453   -1.6065   -0.4045 C   0  0  0  0  0  0  0  0  0  0  0  0
    2.7087   -1.7066    0.9731 N   0  0  0  0  0  0  0  0  0  0  0  0
    0.4521   -1.3360   -1.5342 H   0  0  0  0  0  0  0  0  0  0  0  0
    0.1795   -1.9902    0.0761 H   0  0  0  0  0  0  0  0  0  0  0  0
    0.7372    0.2361    1.0858 H   0  0  0  0  0  0  0  0  0  0  0  0
    1.0882    0.8849   -0.5011 H   0  0  0  0  0  0  0  0  0  0  0  0
   -1.9932   -1.3076    0.4293 H   0  0  0  0  0  0  0  0  0  0  0  0
   -1.9881    3.6705    0.1528 H   0  0  0  0  0  0  0  0  0  0  0  0
   -2.3599    0.9509   -1.6285 H   0  0  0  0  0  0  0  0  0  0  0  0
   -0.8400    1.2677   -2.0568 H   0  0  0  0  0  0  0  0  0  0  0  0
    2.8465   -0.8670   -0.9448 H   0  0  0  0  0  0  0  0  0  0  0  0
    2.4017   -2.5741   -0.8939 H   0  0  0  0  0  0  0  0  0  0  0  0
    2.6905   -0.7908    1.4201 H   0  0  0  0  0  0  0  0  0  0  0  0
    3.6857   -1.9989    0.9805 H   0  0  0  0  0  0  0  0  0  0  0  0
  1  2  1  0
  2  3  1  0
  3  4  1  0
  4  5  1  0
  4  6  1  0
  3  7  1  0
  7  8  2  0
  7  9  1  0
  3 10  1  0
  1 11  1  0
 11 12  1  0
  1 13  1  0
  1 14  1  0
  2 15  1  0
  2 16  1  0
  4 17  1  0
  9 18  1  0
 10 19  1  0
 10 20  1  0
 11 21  1  0
 11 22  1  0
 12 23  1  0
 12 24  1  0
M  END
$$$$
