
     RDKit          3D

 21 22  0  0  0  0  0  0  0  0999 V2000
   -3.4337   -0.4504   -0.1298 C   0  0  0  0  0  0  0  0  0  0  0  0
   -2.0130    0.0192    0.1060 C   0  0  0  0  0  0  0  0  0  0  0  0
   -1.8768    1.0987    0.7937 N   0  0  0  0  0  0  0  0  0  0  0  0
   -0.4097    1.6962    1.1096 S   0  0  0  0  0  6  0  0  0  0  0  0
   -0.1716    1.6033    2.5372 O   0  0  0  0  0  0  0  0  0  0  0  0
   -0.2701    2.9645    0.4201 O   0  0  0  0  0  0  0  0  0  0  0  0
    0.7821    0.6307    0.3691 C   0  0  0  0  0  0  0  0  0  0  0  0
    0.3297   -0.4846   -0.3269 C   0  0  0  0  0  0  0  0  0  0  0  0
   -1.0300   -0.7639   -0.4432 N   0  0  0  0  0  0  0  0  0  0  0  0
    1.2857   -1.3236   -0.9108 C   0  0  0  0  0  0  0  0  0  0  0  0
    2.6518   -1.0394   -0.7917 C   0  0  0  0  0  0  0  0  0  0  0  0
    3.0727    0.0879   -0.0865 C   0  0  0  0  0  0  0  0  0  0  0  0
    2.1414    0.9338    0.5007 C   0  0  0  0  0  0  0  0  0  0  0  0
    4.7513    0.4290    0.0547 Cl  0  0  0  0  0  0  0  0  0  0  0  0
   -3.5592   -1.4518    0.2921 H   0  0  0  0  0  0  0  0  0  0  0  0
   -3.6289   -0.4890   -1.2054 H   0  0  0  0  0  0  0  0  0  0  0  0
   -4.1529    0.2270    0.3392 H   0  0  0  0  0  0  0  0  0  0  0  0
   -1.2919   -1.5931   -0.9642 H   0  0  0  0  0  0  0  0  0  0  0  0
    0.9839   -2.2089   -1.4660 H   0  0  0  0  0  0  0  0  0  0  0  0
    3.3820   -1.7016   -1.2514 H   0  0  0  0  0  0  0  0  0  0  0  0
    2.4571    1.8157    1.0530 H   0  0  0  0  0  0  0  0  0  0  0  0
  1  2  1  0
  2  3  2  0
  3  4  1  0
  4  5  2  0
  4  6  2  0
  4  7  1  0
  7  8  2  0
  8  9  1  0
  8 10  1  0
 10 11  2  0
 11 12  1  0
 12 13  2  0
 12 14  1  0
  9  2  1  0
 13  7  1  0
  1 15  1  0
  1 16  1  0
  1 17  1  0
  9 18  1  0
 10 19  1  0
 11 20  1  0
 13 21  1  0
M  END
$$$$
