
     RDKit          3D

 30 31  0  0  0  0  0  0  0  0999 V2000
   -3.0792   -2.2886    0.9417 C   0  0  0  0  0  0  0  0  0  0  0  0
   -2.4153   -2.9819   -0.0628 C   0  0  0  0  0  0  0  0  0  0  0  0
   -1.3387   -2.3865   -0.7181 C   0  0  0  0  0  0  0  0  0  0  0  0
   -0.8902   -1.1045   -0.3623 C   0  0  0  0  0  0  0  0  0  0  0  0
   -1.5927   -0.3791    0.6220 C   0  0  0  0  0  0  0  0  0  0  0  0
   -2.6757   -0.9963    1.2779 C   0  0  0  0  0  0  0  0  0  0  0  0
   -1.2393    1.0428    1.0002 C   0  0  0  0  0  0  0  0  0  0  0  0
   -1.3970    2.0366   -0.1241 C   0  0  0  0  0  0  0  0  0  0  0  0
   -1.8161    1.8423   -1.2532 O   0  0  0  0  0  0  0  0  0  0  0  0
   -0.9999    3.2755    0.2402 O   0  0  0  0  0  0  0  0  0  0  0  0
    0.1641   -0.5558   -1.1336 N   0  0  0  0  0  0  0  0  0  0  0  0
    1.4071   -0.0298   -0.6715 C   0  0  0  0  0  0  0  0  0  0  0  0
    2.1374   -0.5505    0.4186 C   0  0  0  0  0  0  0  0  0  0  0  0
    3.3742    0.0025    0.7893 C   0  0  0  0  0  0  0  0  0  0  0  0
    3.9263    1.0599    0.0718 C   0  0  0  0  0  0  0  0  0  0  0  0
    3.2508    1.5618   -1.0335 C   0  0  0  0  0  0  0  0  0  0  0  0
    2.0175    1.0157   -1.4054 C   0  0  0  0  0  0  0  0  0  0  0  0
    1.2448    1.6869   -2.8048 Cl  0  0  0  0  0  0  0  0  0  0  0  0
    1.6193   -1.9113    1.3559 Cl  0  0  0  0  0  0  0  0  0  0  0  0
   -3.9190   -2.7481    1.4563 H   0  0  0  0  0  0  0  0  0  0  0  0
   -2.7328   -3.9833   -0.3396 H   0  0  0  0  0  0  0  0  0  0  0  0
   -0.8257   -2.9336   -1.5058 H   0  0  0  0  0  0  0  0  0  0  0  0
   -3.2250   -0.4668    2.0537 H   0  0  0  0  0  0  0  0  0  0  0  0
   -0.2098    1.0739    1.3702 H   0  0  0  0  0  0  0  0  0  0  0  0
   -1.8854    1.3826    1.8189 H   0  0  0  0  0  0  0  0  0  0  0  0
   -1.1466    3.8126   -0.5673 H   0  0  0  0  0  0  0  0  0  0  0  0
   -0.2503    0.0767   -1.8280 H   0  0  0  0  0  0  0  0  0  0  0  0
    3.9210   -0.4050    1.6376 H   0  0  0  0  0  0  0  0  0  0  0  0
    4.8869    1.4769    0.3641 H   0  0  0  0  0  0  0  0  0  0  0  0
    3.6892    2.3742   -1.6083 H   0  0  0  0  0  0  0  0  0  0  0  0
  1  2  2  0
  2  3  1  0
  3  4  2  0
  4  5  1  0
  5  6  2  0
  5  7  1  0
  7  8  1  0
  8  9  2  0
  8 10  1  0
  4 11  1  0
 11 12  1  0
 12 13  2  0
 13 14  1  0
 14 15  2  0
 15 16  1  0
 16 17  2  0
 17 18  1  0
 13 19  1  0
  6  1  1  0
 17 12  1  0
  1 20  1  0
  2 21  1  0
  3 22  1  0
  6 23  1  0
  7 24  1  0
  7 25  1  0
 10 26  1  0
 11 27  1  0
 14 28  1  0
 15 29  1  0
 16 30  1  0
M  END
$$$$
