
     RDKit          3D

 50 52  0  0  0  0  0  0  0  0999 V2000
   -1.2156    4.5947   -0.1470 C   0  0  0  0  0  0  0  0  0  0  0  0
   -1.6880    3.9938    1.0178 C   0  0  0  0  0  0  0  0  0  0  0  0
   -1.9543    2.6283    1.0406 C   0  0  0  0  0  0  0  0  0  0  0  0
   -1.7988    1.8478   -0.1150 C   0  0  0  0  0  0  0  0  0  0  0  0
   -1.3145    2.4609   -1.2840 C   0  0  0  0  0  0  0  0  0  0  0  0
   -1.0252    3.8234   -1.2964 C   0  0  0  0  0  0  0  0  0  0  0  0
   -2.0906    0.3918   -0.1006 C   0  0  0  0  0  0  0  0  0  0  0  0
   -1.0811   -0.5297   -0.0053 C   0  0  0  0  0  0  0  0  0  0  0  0
   -1.3930   -1.9911   -0.0871 C   0  0  0  0  0  0  0  0  0  0  0  0
   -1.8832   -2.5713   -1.2683 C   0  0  0  0  0  0  0  0  0  0  0  0
   -2.1428   -3.9405   -1.3245 C   0  0  0  0  0  0  0  0  0  0  0  0
   -1.8896   -4.7435   -0.2146 C   0  0  0  0  0  0  0  0  0  0  0  0
   -1.3793   -4.1815    0.9543 C   0  0  0  0  0  0  0  0  0  0  0  0
   -1.1297   -2.8101    1.0189 C   0  0  0  0  0  0  0  0  0  0  0  0
    0.3499   -0.1124    0.1152 C   0  0  0  0  0  0  0  0  0  0  0  0
    1.2439   -0.4977   -0.8952 C   0  0  0  0  0  0  0  0  0  0  0  0
    2.6045   -0.2060   -0.8065 C   0  0  0  0  0  0  0  0  0  0  0  0
    3.0994    0.4853    0.3001 C   0  0  0  0  0  0  0  0  0  0  0  0
    2.2127    0.8818    1.3056 C   0  0  0  0  0  0  0  0  0  0  0  0
    0.8535    0.5773    1.2255 C   0  0  0  0  0  0  0  0  0  0  0  0
    4.4071    0.8259    0.5176 O   0  0  0  0  0  0  0  0  0  0  0  0
    5.3996    0.3490   -0.3925 C   0  0  0  0  0  0  0  0  0  0  0  0
    5.8048   -1.0941   -0.0715 C   0  0  0  0  0  0  0  0  0  0  0  0
    6.4015   -1.1962    1.2241 O   0  0  0  0  0  0  0  0  0  0  0  0
   -3.5774    0.0456   -0.3161 C   0  0  0  0  0  0  0  0  0  0  0  0
   -4.6206    0.7263    0.5771 C   0  0  0  0  0  0  0  0  0  0  0  0
   -5.2321    2.2455   -0.1210 Cl  0  0  0  0  0  0  0  0  0  0  0  0
   -1.0039    5.6566   -0.1617 H   0  0  0  0  0  0  0  0  0  0  0  0
   -1.8516    4.5939    1.9152 H   0  0  0  0  0  0  0  0  0  0  0  0
   -2.3214    2.1741    1.9595 H   0  0  0  0  0  0  0  0  0  0  0  0
   -1.1584    1.8723   -2.1879 H   0  0  0  0  0  0  0  0  0  0  0  0
   -0.6479    4.2917   -2.2032 H   0  0  0  0  0  0  0  0  0  0  0  0
   -2.0790   -1.9549   -2.1414 H   0  0  0  0  0  0  0  0  0  0  0  0
   -2.5357   -4.3823   -2.2390 H   0  0  0  0  0  0  0  0  0  0  0  0
   -2.0817   -5.8152   -0.2618 H   0  0  0  0  0  0  0  0  0  0  0  0
   -1.1658   -4.8090    1.8145 H   0  0  0  0  0  0  0  0  0  0  0  0
   -0.7211   -2.3824    1.9338 H   0  0  0  0  0  0  0  0  0  0  0  0
    0.8786   -1.0443   -1.7679 H   0  0  0  0  0  0  0  0  0  0  0  0
    3.2437   -0.5411   -1.6165 H   0  0  0  0  0  0  0  0  0  0  0  0
    2.5841    1.4316    2.1740 H   0  0  0  0  0  0  0  0  0  0  0  0
    0.1871    0.8834    2.0242 H   0  0  0  0  0  0  0  0  0  0  0  0
    6.2697    0.9963   -0.2421 H   0  0  0  0  0  0  0  0  0  0  0  0
    5.1029    0.4757   -1.4455 H   0  0  0  0  0  0  0  0  0  0  0  0
    4.9464   -1.7741   -0.0800 H   0  0  0  0  0  0  0  0  0  0  0  0
    6.5360   -1.4564   -0.8043 H   0  0  0  0  0  0  0  0  0  0  0  0
    6.1476   -0.3934    1.7321 H   0  0  0  0  0  0  0  0  0  0  0  0
   -3.8180    0.2025   -1.3742 H   0  0  0  0  0  0  0  0  0  0  0  0
   -3.7345   -1.0193   -0.1382 H   0  0  0  0  0  0  0  0  0  0  0  0
   -4.2453    0.9110    1.5891 H   0  0  0  0  0  0  0  0  0  0  0  0
   -5.4927    0.0800    0.6699 H   0  0  0  0  0  0  0  0  0  0  0  0
  1  2  2  0
  2  3  1  0
  3  4  2  0
  4  5  1  0
  5  6  2  0
  4  7  1  0
  7  8  2  0
  8  9  1  0
  9 10  2  0
 10 11  1  0
 11 12  2  0
 12 13  1  0
 13 14  2  0
  8 15  1  0
 15 16  2  0
 16 17  1  0
 17 18  2  0
 18 19  1  0
 19 20  2  0
 18 21  1  0
 21 22  1  0
 22 23  1  0
 23 24  1  0
  7 25  1  0
 25 26  1  0
 26 27  1  0
  6  1  1  0
 14  9  1  0
 20 15  1  0
  1 28  1  0
  2 29  1  0
  3 30  1  0
  5 31  1  0
  6 32  1  0
 10 33  1  0
 11 34  1  0
 12 35  1  0
 13 36  1  0
 14 37  1  0
 16 38  1  0
 17 39  1  0
 19 40  1  0
 20 41  1  0
 22 42  1  0
 22 43  1  0
 23 44  1  0
 23 45  1  0
 24 46  1  0
 25 47  1  0
 25 48  1  0
 26 49  1  0
 26 50  1  0
M  END
$$$$
