
     RDKit          3D

 54 57  0  0  0  0  0  0  0  0999 V2000
   -7.5400    0.6265    1.0926 C   0  0  0  0  0  0  0  0  0  0  0  0
   -6.1238    0.5622    1.4354 N   0  0  0  0  0  0  0  0  0  0  0  0
   -5.2958    1.0158    0.3110 C   0  0  0  0  0  0  0  0  0  0  0  0
   -3.8120    0.7352    0.5661 C   0  0  0  0  0  0  0  0  0  0  0  0
   -3.5296   -0.7683    0.7223 C   0  0  0  0  0  0  0  0  0  0  0  0
   -4.8041   -1.5558    1.0894 C   0  0  0  0  0  0  0  0  0  0  0  0
   -5.7356   -0.7408    1.9913 C   0  0  0  0  0  0  0  0  0  0  0  0
   -2.8711   -1.4314   -0.5057 C   0  0  0  0  0  0  0  0  0  0  0  0
   -1.9172   -0.6024   -1.1618 O   0  0  0  0  0  0  0  0  0  0  0  0
   -0.6016   -0.5867   -0.7769 C   0  0  0  0  0  0  0  0  0  0  0  0
    0.2818    0.0709   -1.6505 C   0  0  0  0  0  0  0  0  0  0  0  0
    1.6296    0.1612   -1.3078 C   0  0  0  0  0  0  0  0  0  0  0  0
    2.1064   -0.3613   -0.0762 C   0  0  0  0  0  0  0  0  0  0  0  0
    1.2161   -1.0313    0.7783 C   0  0  0  0  0  0  0  0  0  0  0  0
   -0.1190   -1.1352    0.4085 C   0  0  0  0  0  0  0  0  0  0  0  0
    1.5944   -1.5637    1.9396 N   0  0  0  0  0  0  0  0  0  0  0  0
    2.8818   -1.4220    2.2772 C   0  0  0  0  0  0  0  0  0  0  0  0
    3.8142   -0.7803    1.5700 N   0  0  0  0  0  0  0  0  0  0  0  0
    3.4346   -0.2457    0.3922 C   0  0  0  0  0  0  0  0  0  0  0  0
    4.4038    0.4321   -0.3817 N   0  0  0  0  0  0  0  0  0  0  0  0
    5.7763    0.5693   -0.0841 C   0  0  0  0  0  0  0  0  0  0  0  0
    6.6006   -0.5291    0.2201 C   0  0  0  0  0  0  0  0  0  0  0  0
    7.9484   -0.3668    0.5253 C   0  0  0  0  0  0  0  0  0  0  0  0
    8.4934    0.9112    0.5523 C   0  0  0  0  0  0  0  0  0  0  0  0
    7.7026    2.0183    0.2668 C   0  0  0  0  0  0  0  0  0  0  0  0
    6.3526    1.8476   -0.0510 C   0  0  0  0  0  0  0  0  0  0  0  0
   10.3159    1.1451    1.0062 Br  0  0  0  0  0  0  0  0  0  0  0  0
    6.1173   -1.7800    0.1571 F   0  0  0  0  0  0  0  0  0  0  0  0
   -0.2749    0.5804   -2.7951 O   0  0  0  0  0  0  0  0  0  0  0  0
    0.5898    1.2241   -3.7303 C   0  0  0  0  0  0  0  0  0  0  0  0
   -7.8212    1.6365    0.7680 H   0  0  0  0  0  0  0  0  0  0  0  0
   -8.1694    0.3894    1.9657 H   0  0  0  0  0  0  0  0  0  0  0  0
   -7.8015   -0.0744    0.2922 H   0  0  0  0  0  0  0  0  0  0  0  0
   -5.5984    0.5364   -0.6294 H   0  0  0  0  0  0  0  0  0  0  0  0
   -5.4278    2.0961    0.1884 H   0  0  0  0  0  0  0  0  0  0  0  0
   -3.5201    1.2468    1.4951 H   0  0  0  0  0  0  0  0  0  0  0  0
   -3.2103    1.1917   -0.2257 H   0  0  0  0  0  0  0  0  0  0  0  0
   -2.8281   -0.8495    1.5632 H   0  0  0  0  0  0  0  0  0  0  0  0
   -5.3586   -1.8313    0.1802 H   0  0  0  0  0  0  0  0  0  0  0  0
   -4.5295   -2.4893    1.5856 H   0  0  0  0  0  0  0  0  0  0  0  0
   -6.6114   -1.3467    2.2430 H   0  0  0  0  0  0  0  0  0  0  0  0
   -5.2245   -0.5519    2.9443 H   0  0  0  0  0  0  0  0  0  0  0  0
   -3.6479   -1.6253   -1.2577 H   0  0  0  0  0  0  0  0  0  0  0  0
   -2.4441   -2.4079   -0.2597 H   0  0  0  0  0  0  0  0  0  0  0  0
    2.3245    0.6408   -1.9906 H   0  0  0  0  0  0  0  0  0  0  0  0
   -0.7769   -1.6514    1.0953 H   0  0  0  0  0  0  0  0  0  0  0  0
    3.1890   -1.8709    3.2143 H   0  0  0  0  0  0  0  0  0  0  0  0
    4.0109    1.2723   -0.8192 H   0  0  0  0  0  0  0  0  0  0  0  0
    8.5490   -1.2397    0.7477 H   0  0  0  0  0  0  0  0  0  0  0  0
    8.1210    3.0193    0.2860 H   0  0  0  0  0  0  0  0  0  0  0  0
    5.7478    2.7258   -0.2635 H   0  0  0  0  0  0  0  0  0  0  0  0
   -0.0146    1.5507   -4.5817 H   0  0  0  0  0  0  0  0  0  0  0  0
    1.0669    2.1068   -3.2954 H   0  0  0  0  0  0  0  0  0  0  0  0
    1.3402    0.5266   -4.1049 H   0  0  0  0  0  0  0  0  0  0  0  0
  1  2  1  0
  2  3  1  0
  3  4  1  0
  4  5  1  0
  5  6  1  0
  6  7  1  0
  5  8  1  0
  8  9  1  0
  9 10  1  0
 10 11  2  0
 11 12  1  0
 12 13  2  0
 13 14  1  0
 14 15  2  0
 14 16  1  0
 16 17  2  0
 17 18  1  0
 18 19  2  0
 19 20  1  0
 20 21  1  0
 21 22  2  0
 22 23  1  0
 23 24  2  0
 24 25  1  0
 25 26  2  0
 24 27  1  0
 22 28  1  0
 11 29  1  0
 29 30  1  0
  7  2  1  0
 15 10  1  0
 19 13  1  0
 26 21  1  0
  1 31  1  0
  1 32  1  0
  1 33  1  0
  3 34  1  0
  3 35  1  0
  4 36  1  0
  4 37  1  0
  5 38  1  0
  6 39  1  0
  6 40  1  0
  7 41  1  0
  7 42  1  0
  8 43  1  0
  8 44  1  0
 12 45  1  0
 15 46  1  0
 17 47  1  0
 20 48  1  0
 23 49  1  0
 25 50  1  0
 26 51  1  0
 30 52  1  0
 30 53  1  0
 30 54  1  0
M  END
$$$$
