
     RDKit          3D

138140  0  0  0  0  0  0  0  0999 V2000
   11.9934   -1.9147    1.8852 C   0  0  0  0  0  0  0  0  0  0  0  0
   11.0834   -1.7790    0.6760 C   0  0  0  0  0  0  0  0  0  0  0  0
    9.9744   -2.8298    0.6240 C   0  0  0  0  0  0  0  0  0  0  0  0
    8.9355   -2.7699    1.7558 C   0  0  0  0  0  0  0  0  0  0  0  0
    8.1837   -1.4437    1.8264 C   0  0  0  0  0  0  0  0  0  0  0  0
    7.0009   -1.5045    2.7974 C   0  0  0  0  0  0  0  0  0  0  0  0
    6.3656   -0.1516    3.1008 C   0  0  0  0  0  0  0  0  0  0  0  0
    5.9432    0.7014    1.9010 C   0  0  0  0  0  0  0  0  0  0  0  0
    4.5344    0.4422    1.3290 C   0  0  0  0  0  0  0  0  0  0  0  0
    4.3509   -0.9474    0.6735 C   0  0  0  0  0  0  0  0  0  0  0  0
    3.0998   -1.0563   -0.2108 C   0  0  0  0  0  0  0  0  0  0  0  0
    2.4093   -0.0891   -0.5410 O   0  0  0  0  0  0  0  0  0  0  0  0
    2.8584   -2.3106   -0.7249 N   0  0  0  0  0  0  0  0  0  0  0  0
    1.6790   -2.5159   -1.5786 C   0  0  2  0  0  0  0  0  0  0  0  0
    0.6113   -3.2243   -0.7283 C   0  0  0  0  0  0  0  0  0  0  0  0
    0.9294   -3.9366    0.2227 O   0  0  0  0  0  0  0  0  0  0  0  0
   -0.6900   -3.0683   -1.1894 N   0  0  0  0  0  0  0  0  0  0  0  0
   -1.7723   -3.9326   -0.6811 C   0  0  1  0  0  0  0  0  0  0  0  0
   -2.8590   -3.2162    0.1651 C   0  0  0  0  0  0  0  0  0  0  0  0
   -3.5620   -3.8681    0.9331 O   0  0  0  0  0  0  0  0  0  0  0  0
   -3.0791   -1.8858   -0.0664 N   0  0  0  0  0  0  0  0  0  0  0  0
   -4.0382   -1.0068    0.6648 C   0  0  1  0  0  0  0  0  0  0  0  0
   -4.7778   -0.1870   -0.4403 C   0  0  0  0  0  0  0  0  0  0  0  0
   -4.2115   -0.0284   -1.5447 O   0  0  0  0  0  0  0  0  0  0  0  0
   -5.9497    0.5374   -0.1779 N   0  0  0  0  0  0  0  0  0  0  0  0
   -7.0932   -0.0929    0.5147 C   0  0  0  0  0  0  0  0  0  0  0  0
   -8.3518    0.6034    0.0076 C   0  0  0  0  0  0  0  0  0  0  0  0
   -7.8201    1.8578   -0.6580 C   0  0  0  0  0  0  0  0  0  0  0  0
   -6.4875    1.3820   -1.2473 C   0  0  1  0  0  0  0  0  0  0  0  0
   -5.7492    2.6143   -1.7733 C   0  0  0  0  0  0  0  0  0  0  0  0
   -6.1170    3.1509   -2.8229 O   0  0  0  0  0  0  0  0  0  0  0  0
   -4.7821    3.2028   -0.9491 N   0  0  0  0  0  0  0  0  0  0  0  0
   -4.3564    4.5711   -1.2854 C   0  0  2  0  0  0  0  0  0  0  0  0
   -2.8702    4.9965   -1.0719 C   0  0  0  0  0  0  0  0  0  0  0  0
   -2.4253    5.9818   -1.6509 O   0  0  0  0  0  0  0  0  0  0  0  0
   -2.1808    4.2931   -0.1050 N   0  0  0  0  0  0  0  0  0  0  0  0
   -0.7708    4.5923    0.2506 C   0  0  1  0  0  0  0  0  0  0  0  0
    0.2283    3.6459   -0.4818 C   0  0  0  0  0  0  0  0  0  0  0  0
   -0.1459    2.6814   -1.1332 O   0  0  0  0  0  0  0  0  0  0  0  0
    1.5565    3.9649   -0.2501 N   0  0  0  0  0  0  0  0  0  0  0  0
    2.6758    3.1106   -0.6220 C   0  0  2  0  0  0  0  0  0  0  0  0
    3.2924    2.4666    0.6481 C   0  0  0  0  0  0  0  0  0  0  0  0
    2.9559    2.7541    1.7913 O   0  0  0  0  0  0  0  0  0  0  0  0
    4.2616    1.5053    0.3537 N   0  0  0  0  0  0  0  0  0  0  0  0
    3.7818    3.8777   -1.3905 C   0  0  1  0  0  0  0  0  0  0  0  0
    3.2235    4.6337   -2.5989 C   0  0  0  0  0  0  0  0  0  0  0  0
    4.4079    4.8769   -0.5696 O   0  0  0  0  0  0  0  0  0  0  0  0
   -0.3442    6.0671    0.0628 C   0  0  0  0  0  0  0  0  0  0  0  0
    0.8042    6.3942    0.8633 O   0  0  0  0  0  0  0  0  0  0  0  0
   -5.3036    5.6180   -0.6614 C   0  0  0  0  0  0  0  0  0  0  0  0
   -5.2786    5.6227    0.8644 C   0  0  0  0  0  0  0  0  0  0  0  0
   -6.0365    6.7827    1.4318 C   0  0  0  0  0  0  0  0  0  0  0  0
   -6.6679    7.6340    0.8261 O   0  0  0  0  0  0  0  0  0  0  0  0
   -5.9631    6.8272    2.7716 O   0  0  0  0  0  0  0  0  0  0  0  0
   -4.8771   -1.6464    1.7867 C   0  0  0  0  0  0  0  0  0  0  0  0
   -4.0657   -2.1855    2.9404 C   0  0  0  0  0  0  0  0  0  0  0  0
   -2.9541   -1.7765    3.2637 O   0  0  0  0  0  0  0  0  0  0  0  0
   -4.7108   -3.1671    3.6596 N   0  0  0  0  0  0  0  0  0  0  0  0
   -2.3990   -4.7511   -1.8440 C   0  0  0  0  0  0  0  0  0  0  0  0
   -3.5734   -5.5995   -1.4274 C   0  0  0  0  0  0  0  0  0  0  0  0
   -4.8683   -5.2579   -1.8584 C   0  0  0  0  0  0  0  0  0  0  0  0
   -5.9836   -5.8429   -1.2568 C   0  0  0  0  0  0  0  0  0  0  0  0
   -5.8051   -6.7700   -0.2323 C   0  0  0  0  0  0  0  0  0  0  0  0
   -4.5292   -7.1907    0.1364 C   0  0  0  0  0  0  0  0  0  0  0  0
   -3.4069   -6.6235   -0.4754 C   0  0  0  0  0  0  0  0  0  0  0  0
   -6.9145   -7.2309    0.4209 O   0  0  0  0  0  0  0  0  0  0  0  0
    2.0541   -3.3718   -2.7906 C   0  0  0  0  0  0  0  0  0  0  0  0
    1.1251   -3.0466   -3.9324 C   0  0  0  0  0  0  0  0  0  0  0  0
   -0.0269   -3.4511   -3.9929 O   0  0  0  0  0  0  0  0  0  0  0  0
    1.6073   -2.1785   -4.8708 N   0  0  0  0  0  0  0  0  0  0  0  0
   12.4568   -2.9031    1.9252 H   0  0  0  0  0  0  0  0  0  0  0  0
   11.4411   -1.7447    2.8123 H   0  0  0  0  0  0  0  0  0  0  0  0
   12.7956   -1.1673    1.8398 H   0  0  0  0  0  0  0  0  0  0  0  0
   11.6946   -1.8655   -0.2387 H   0  0  0  0  0  0  0  0  0  0  0  0
   10.6548   -0.7702    0.6539 H   0  0  0  0  0  0  0  0  0  0  0  0
   10.4271   -3.8320    0.6162 H   0  0  0  0  0  0  0  0  0  0  0  0
    9.4470   -2.7311   -0.3356 H   0  0  0  0  0  0  0  0  0  0  0  0
    8.2175   -3.5820    1.5929 H   0  0  0  0  0  0  0  0  0  0  0  0
    9.4174   -2.9808    2.7189 H   0  0  0  0  0  0  0  0  0  0  0  0
    7.8221   -1.1841    0.8264 H   0  0  0  0  0  0  0  0  0  0  0  0
    8.8735   -0.6462    2.1375 H   0  0  0  0  0  0  0  0  0  0  0  0
    6.2490   -2.1959    2.4192 H   0  0  0  0  0  0  0  0  0  0  0  0
    7.3527   -1.9235    3.7570 H   0  0  0  0  0  0  0  0  0  0  0  0
    5.5201   -0.2855    3.7837 H   0  0  0  0  0  0  0  0  0  0  0  0
    7.1165    0.4424    3.6634 H   0  0  0  0  0  0  0  0  0  0  0  0
    6.6867    0.6783    1.1034 H   0  0  0  0  0  0  0  0  0  0  0  0
    5.9468    1.7560    2.2496 H   0  0  0  0  0  0  0  0  0  0  0  0
    3.7980    0.5247    2.1341 H   0  0  0  0  0  0  0  0  0  0  0  0
    5.2110   -1.1745    0.0298 H   0  0  0  0  0  0  0  0  0  0  0  0
    4.2884   -1.7238    1.4536 H   0  0  0  0  0  0  0  0  0  0  0  0
    3.0928   -3.0914   -0.1102 H   0  0  0  0  0  0  0  0  0  0  0  0
    1.2705   -1.5494   -1.9011 H   0  0  0  0  0  0  0  0  0  0  0  0
   -0.8243   -2.6484   -2.1130 H   0  0  0  0  0  0  0  0  0  0  0  0
   -1.3082   -4.6361    0.0307 H   0  0  0  0  0  0  0  0  0  0  0  0
   -2.4902   -1.4304   -0.7596 H   0  0  0  0  0  0  0  0  0  0  0  0
   -3.3901   -0.2603    1.1360 H   0  0  0  0  0  0  0  0  0  0  0  0
   -7.0017    0.0576    1.5969 H   0  0  0  0  0  0  0  0  0  0  0  0
   -7.1618   -1.1760    0.2743 H   0  0  0  0  0  0  0  0  0  0  0  0
   -9.0613    0.8110    0.8207 H   0  0  0  0  0  0  0  0  0  0  0  0
   -8.8821   -0.0147   -0.7289 H   0  0  0  0  0  0  0  0  0  0  0  0
   -7.6677    2.6451    0.0982 H   0  0  0  0  0  0  0  0  0  0  0  0
   -8.5142    2.2452   -1.4087 H   0  0  0  0  0  0  0  0  0  0  0  0
   -6.6725    0.7371   -2.1208 H   0  0  0  0  0  0  0  0  0  0  0  0
   -4.6579    2.8173   -0.0168 H   0  0  0  0  0  0  0  0  0  0  0  0
   -4.4435    4.6612   -2.3767 H   0  0  0  0  0  0  0  0  0  0  0  0
   -2.4255    3.3119   -0.0460 H   0  0  0  0  0  0  0  0  0  0  0  0
   -0.6855    4.3171    1.3109 H   0  0  0  0  0  0  0  0  0  0  0  0
    1.7552    4.6912    0.4348 H   0  0  0  0  0  0  0  0  0  0  0  0
    2.2980    2.2982   -1.2597 H   0  0  0  0  0  0  0  0  0  0  0  0
    4.2313    1.2040   -0.6163 H   0  0  0  0  0  0  0  0  0  0  0  0
    4.5650    3.1959   -1.7391 H   0  0  0  0  0  0  0  0  0  0  0  0
    2.5930    5.4598   -2.2671 H   0  0  0  0  0  0  0  0  0  0  0  0
    4.0414    5.0756   -3.1868 H   0  0  0  0  0  0  0  0  0  0  0  0
    2.6432    3.9843   -3.2679 H   0  0  0  0  0  0  0  0  0  0  0  0
    5.0948    4.4283   -0.0371 H   0  0  0  0  0  0  0  0  0  0  0  0
   -0.0754    6.2668   -0.9845 H   0  0  0  0  0  0  0  0  0  0  0  0
   -1.1270    6.7597    0.3691 H   0  0  0  0  0  0  0  0  0  0  0  0
    1.0750    7.2974    0.6024 H   0  0  0  0  0  0  0  0  0  0  0  0
   -5.0399    6.6164   -1.0329 H   0  0  0  0  0  0  0  0  0  0  0  0
   -6.3316    5.4295   -0.9901 H   0  0  0  0  0  0  0  0  0  0  0  0
   -5.7295    4.7077    1.2633 H   0  0  0  0  0  0  0  0  0  0  0  0
   -4.2541    5.7079    1.2388 H   0  0  0  0  0  0  0  0  0  0  0  0
   -6.4779    7.6345    2.9948 H   0  0  0  0  0  0  0  0  0  0  0  0
   -5.5519   -2.4181    1.3837 H   0  0  0  0  0  0  0  0  0  0  0  0
   -5.4753   -0.8818    2.2940 H   0  0  0  0  0  0  0  0  0  0  0  0
   -4.1968   -3.6473    4.3817 H   0  0  0  0  0  0  0  0  0  0  0  0
   -5.7158   -3.3038    3.6328 H   0  0  0  0  0  0  0  0  0  0  0  0
   -1.6325   -5.4083   -2.2840 H   0  0  0  0  0  0  0  0  0  0  0  0
   -2.7002   -4.0671   -2.6499 H   0  0  0  0  0  0  0  0  0  0  0  0
   -5.0283   -4.4709   -2.5990 H   0  0  0  0  0  0  0  0  0  0  0  0
   -6.9880   -5.5394   -1.5395 H   0  0  0  0  0  0  0  0  0  0  0  0
   -4.3771   -7.9255    0.9273 H   0  0  0  0  0  0  0  0  0  0  0  0
   -2.4145   -6.9034   -0.1286 H   0  0  0  0  0  0  0  0  0  0  0  0
   -6.5936   -7.6590    1.2319 H   0  0  0  0  0  0  0  0  0  0  0  0
    1.9878   -4.4488   -2.5834 H   0  0  0  0  0  0  0  0  0  0  0  0
    3.0874   -3.1708   -3.1131 H   0  0  0  0  0  0  0  0  0  0  0  0
    2.5925   -1.9450   -4.9359 H   0  0  0  0  0  0  0  0  0  0  0  0
    1.0227   -1.9962   -5.6806 H   0  0  0  0  0  0  0  0  0  0  0  0
  1  2  1  0
  2  3  1  0
  3  4  1  0
  4  5  1  0
  5  6  1  0
  6  7  1  0
  7  8  1  0
  8  9  1  0
  9 10  1  0
 10 11  1  0
 11 12  2  0
 11 13  1  0
 13 14  1  0
 14 15  1  0
 15 16  2  0
 15 17  1  0
 17 18  1  0
 18 19  1  0
 19 20  2  0
 19 21  1  0
 21 22  1  0
 22 23  1  0
 23 24  2  0
 23 25  1  0
 25 26  1  0
 26 27  1  0
 27 28  1  0
 28 29  1  0
 29 30  1  0
 30 31  2  0
 30 32  1  0
 32 33  1  0
 33 34  1  0
 34 35  2  0
 34 36  1  0
 36 37  1  0
 37 38  1  0
 38 39  2  0
 38 40  1  0
 40 41  1  0
 41 42  1  0
 42 43  2  0
 42 44  1  0
 41 45  1  0
 45 46  1  0
 45 47  1  0
 37 48  1  0
 48 49  1  0
 33 50  1  0
 50 51  1  0
 51 52  1  0
 52 53  2  0
 52 54  1  0
 22 55  1  0
 55 56  1  0
 56 57  2  0
 56 58  1  0
 18 59  1  0
 59 60  1  0
 60 61  2  0
 61 62  1  0
 62 63  2  0
 63 64  1  0
 64 65  2  0
 63 66  1  0
 14 67  1  0
 67 68  1  0
 68 69  2  0
 68 70  1  0
 44  9  1  0
 29 25  1  0
 65 60  1  0
  1 71  1  0
  1 72  1  0
  1 73  1  0
  2 74  1  0
  2 75  1  0
  3 76  1  0
  3 77  1  0
  4 78  1  0
  4 79  1  0
  5 80  1  0
  5 81  1  0
  6 82  1  0
  6 83  1  0
  7 84  1  0
  7 85  1  0
  8 86  1  0
  8 87  1  0
  9 88  1  0
 10 89  1  0
 10 90  1  0
 13 91  1  0
 14 92  1  6
 17 93  1  0
 18 94  1  1
 21 95  1  0
 22 96  1  1
 26 97  1  0
 26 98  1  0
 27 99  1  0
 27100  1  0
 28101  1  0
 28102  1  0
 29103  1  6
 32104  1  0
 33105  1  6
 36106  1  0
 37107  1  1
 40108  1  0
 41109  1  6
 44110  1  0
 45111  1  6
 46112  1  0
 46113  1  0
 46114  1  0
 47115  1  0
 48116  1  0
 48117  1  0
 49118  1  0
 50119  1  0
 50120  1  0
 51121  1  0
 51122  1  0
 54123  1  0
 55124  1  0
 55125  1  0
 58126  1  0
 58127  1  0
 59128  1  0
 59129  1  0
 61130  1  0
 62131  1  0
 64132  1  0
 65133  1  0
 66134  1  0
 67135  1  0
 67136  1  0
 70137  1  0
 70138  1  0
M  END
$$$$
