
     RDKit          3D

 21 20  0  0  0  0  0  0  0  0999 V2000
    1.2220    0.7876    0.7374 C   0  0  0  0  0  0  0  0  0  0  0  0
    2.3222   -0.2155    0.9215 C   0  0  0  0  0  0  0  0  0  0  0  0
    2.2041   -1.3519    1.3487 O   0  0  0  0  0  0  0  0  0  0  0  0
    3.5379    0.2758    0.6159 O   0  0  0  0  0  0  0  0  0  0  0  0
    0.1029    0.3015   -0.1922 C   0  0  0  0  0  0  0  0  0  0  0  0
   -0.5650   -0.9959    0.2840 C   0  0  0  0  0  0  0  0  0  0  0  0
   -1.8398   -1.2867   -0.4590 C   0  0  0  0  0  0  0  0  0  0  0  0
   -2.1885   -0.8151   -1.5283 O   0  0  0  0  0  0  0  0  0  0  0  0
   -2.6046   -2.1945    0.1757 O   0  0  0  0  0  0  0  0  0  0  0  0
   -0.9386    1.4367   -0.2045 C   0  0  0  0  0  0  0  0  0  0  0  0
   -1.6271    1.7947    0.7374 O   0  0  0  0  0  0  0  0  0  0  0  0
   -1.0499    2.0353   -1.4093 O   0  0  0  0  0  0  0  0  0  0  0  0
    0.6778    0.0915   -1.4885 O   0  0  0  0  0  0  0  0  0  0  0  0
    0.8432    1.0444    1.7342 H   0  0  0  0  0  0  0  0  0  0  0  0
    1.6630    1.7055    0.3252 H   0  0  0  0  0  0  0  0  0  0  0  0
    4.1485   -0.4754    0.7683 H   0  0  0  0  0  0  0  0  0  0  0  0
   -0.8095   -0.9192    1.3502 H   0  0  0  0  0  0  0  0  0  0  0  0
    0.0874   -1.8596    0.1183 H   0  0  0  0  0  0  0  0  0  0  0  0
   -3.3837   -2.3195   -0.4057 H   0  0  0  0  0  0  0  0  0  0  0  0
   -1.7617    2.6999   -1.2945 H   0  0  0  0  0  0  0  0  0  0  0  0
   -0.0404    0.2605   -2.1347 H   0  0  0  0  0  0  0  0  0  0  0  0
  1  2  1  0
  2  3  2  0
  2  4  1  0
  1  5  1  0
  5  6  1  0
  6  7  1  0
  7  8  2  0
  7  9  1  0
  5 10  1  0
 10 11  2  0
 10 12  1  0
  5 13  1  0
  1 14  1  0
  1 15  1  0
  4 16  1  0
  6 17  1  0
  6 18  1  0
  9 19  1  0
 12 20  1  0
 13 21  1  0
M  END
$$$$
