
     RDKit          3D

 83 89  0  0  0  0  0  0  0  0999 V2000
   -5.7756    4.0828   -0.1962 C   0  0  0  0  0  0  0  0  0  0  0  0
   -5.7947    2.5672    0.0392 C   0  0  0  0  0  0  0  0  0  0  0  0
   -7.2020    2.0209   -0.2212 C   0  0  0  0  0  0  0  0  0  0  0  0
   -4.7130    1.8796   -0.8270 C   0  0  0  0  0  0  0  0  0  0  0  0
   -4.5647    0.3617   -0.5469 C   0  0  1  0  0  0  0  0  0  0  0  0
   -5.2349   -0.5009   -1.6634 C   0  0  0  0  0  0  0  0  0  0  0  0
   -6.1477   -0.0858   -2.3721 O   0  0  0  0  0  0  0  0  0  0  0  0
   -4.8094   -1.8160   -1.7178 N   0  0  0  0  0  0  0  0  0  0  0  0
   -5.1337   -2.7058   -2.8132 C   0  0  0  0  0  0  0  0  0  0  0  0
   -3.8379   -3.4655   -3.0460 C   0  0  0  0  0  0  0  0  0  0  0  0
   -3.2290   -3.5751   -1.6487 C   0  0  0  0  0  0  0  0  0  0  0  0
   -3.6618   -2.2882   -0.9421 C   0  0  1  0  0  0  0  0  0  0  0  0
   -2.5858   -1.1835   -0.8177 C   0  0  1  0  0  0  0  0  0  0  0  0
   -3.1527    0.0076   -0.2873 N   0  0  0  0  0  0  0  0  0  0  0  0
   -2.5477    0.3092    0.9145 C   0  0  0  0  0  0  0  0  0  0  0  0
   -2.8747    1.2205    1.6593 O   0  0  0  0  0  0  0  0  0  0  0  0
   -1.3308   -0.6200    1.0707 C   0  0  2  0  0  0  0  0  0  0  0  0
   -1.5514   -1.5943    0.0509 O   0  0  0  0  0  0  0  0  0  0  0  0
   -1.3439   -1.2884    2.4713 C   0  0  0  0  0  0  0  0  0  0  0  0
   -0.8865   -0.3580    3.5988 C   0  0  0  0  0  0  0  0  0  0  0  0
   -0.5661   -2.6085    2.5493 C   0  0  0  0  0  0  0  0  0  0  0  0
   -0.1605    0.1775    0.7441 N   0  0  0  0  0  0  0  0  0  0  0  0
    1.0767   -0.3375    0.4220 C   0  0  0  0  0  0  0  0  0  0  0  0
    1.3094   -1.5412    0.3737 O   0  0  0  0  0  0  0  0  0  0  0  0
    2.1178    0.7404    0.0727 C   0  0  1  0  0  0  0  0  0  0  0  0
    2.5768    1.5683    1.2914 C   0  0  0  0  0  0  0  0  0  0  0  0
    3.7379    1.0641    2.0433 N   0  0  0  0  0  0  0  0  0  0  0  0
    4.8935    0.7614    1.1622 C   0  0  2  0  0  0  0  0  0  0  0  0
    5.8774    1.9856    1.0820 C   0  0  0  0  0  0  0  0  0  0  0  0
    7.0193    1.6323    0.1788 C   0  0  0  0  0  0  0  0  0  0  0  0
    8.3176    2.0601    0.0528 C   0  0  0  0  0  0  0  0  0  0  0  0
    8.9168    1.3372   -0.9500 N   0  0  0  0  0  0  0  0  0  0  0  0
    8.0239    0.4360   -1.4900 C   0  0  0  0  0  0  0  0  0  0  0  0
    8.1375   -0.5215   -2.4983 C   0  0  0  0  0  0  0  0  0  0  0  0
    6.9912   -1.2864   -2.7856 C   0  0  0  0  0  0  0  0  0  0  0  0
    5.7817   -1.1027   -2.0969 C   0  0  0  0  0  0  0  0  0  0  0  0
    5.6915   -0.1450   -1.0843 C   0  0  0  0  0  0  0  0  0  0  0  0
    6.8363    0.6194   -0.8006 C   0  0  0  0  0  0  0  0  0  0  0  0
    4.5322    0.2176   -0.2400 C   0  0  0  0  0  0  0  0  0  0  0  0
    3.2737    0.1798   -0.7108 C   0  0  0  0  0  0  0  0  0  0  0  0
    9.1782    3.4025    1.0810 Br  0  0  0  0  0  0  0  0  0  0  0  0
    3.3958   -0.1033    2.8598 C   0  0  0  0  0  0  0  0  0  0  0  0
   -2.0490   -0.8383   -2.0699 O   0  0  0  0  0  0  0  0  0  0  0  0
   -4.7849    4.5014    0.0258 H   0  0  0  0  0  0  0  0  0  0  0  0
   -6.0208    4.3237   -1.2384 H   0  0  0  0  0  0  0  0  0  0  0  0
   -6.5015    4.5876    0.4516 H   0  0  0  0  0  0  0  0  0  0  0  0
   -5.5536    2.3947    1.0975 H   0  0  0  0  0  0  0  0  0  0  0  0
   -7.9401    2.5399    0.4010 H   0  0  0  0  0  0  0  0  0  0  0  0
   -7.4892    2.1609   -1.2677 H   0  0  0  0  0  0  0  0  0  0  0  0
   -7.2702    0.9550    0.0174 H   0  0  0  0  0  0  0  0  0  0  0  0
   -3.7603    2.3789   -0.6207 H   0  0  0  0  0  0  0  0  0  0  0  0
   -4.9104    2.0671   -1.8895 H   0  0  0  0  0  0  0  0  0  0  0  0
   -5.0991    0.1028    0.3799 H   0  0  0  0  0  0  0  0  0  0  0  0
   -5.9281   -3.3757   -2.4686 H   0  0  0  0  0  0  0  0  0  0  0  0
   -5.4763   -2.1651   -3.7004 H   0  0  0  0  0  0  0  0  0  0  0  0
   -3.9988   -4.4388   -3.5154 H   0  0  0  0  0  0  0  0  0  0  0  0
   -3.1701   -2.8858   -3.6927 H   0  0  0  0  0  0  0  0  0  0  0  0
   -2.1456   -3.7235   -1.6687 H   0  0  0  0  0  0  0  0  0  0  0  0
   -3.6710   -4.4368   -1.1365 H   0  0  0  0  0  0  0  0  0  0  0  0
   -4.0263   -2.5378    0.0624 H   0  0  0  0  0  0  0  0  0  0  0  0
   -2.3902   -1.5597    2.6843 H   0  0  0  0  0  0  0  0  0  0  0  0
    0.1701   -0.0938    3.4942 H   0  0  0  0  0  0  0  0  0  0  0  0
   -1.0118   -0.8461    4.5706 H   0  0  0  0  0  0  0  0  0  0  0  0
   -1.4666    0.5695    3.6237 H   0  0  0  0  0  0  0  0  0  0  0  0
    0.5137   -2.4497    2.5154 H   0  0  0  0  0  0  0  0  0  0  0  0
   -0.8509   -3.2954    1.7456 H   0  0  0  0  0  0  0  0  0  0  0  0
   -0.7876   -3.1194    3.4944 H   0  0  0  0  0  0  0  0  0  0  0  0
   -0.2339    1.1726    0.9266 H   0  0  0  0  0  0  0  0  0  0  0  0
    1.6017    1.4328   -0.6074 H   0  0  0  0  0  0  0  0  0  0  0  0
    2.8414    2.5709    0.9314 H   0  0  0  0  0  0  0  0  0  0  0  0
    1.7433    1.7344    1.9863 H   0  0  0  0  0  0  0  0  0  0  0  0
    5.4787   -0.0379    1.6500 H   0  0  0  0  0  0  0  0  0  0  0  0
    5.3647    2.8700    0.6850 H   0  0  0  0  0  0  0  0  0  0  0  0
    6.2453    2.2278    2.0857 H   0  0  0  0  0  0  0  0  0  0  0  0
    9.8775    1.4460   -1.2445 H   0  0  0  0  0  0  0  0  0  0  0  0
    9.0664   -0.6799   -3.0402 H   0  0  0  0  0  0  0  0  0  0  0  0
    7.0495   -2.0460   -3.5648 H   0  0  0  0  0  0  0  0  0  0  0  0
    4.9239   -1.7193   -2.3501 H   0  0  0  0  0  0  0  0  0  0  0  0
    3.0513   -0.1925   -1.7070 H   0  0  0  0  0  0  0  0  0  0  0  0
    3.2045   -1.0084    2.2707 H   0  0  0  0  0  0  0  0  0  0  0  0
    2.5206    0.1064    3.4838 H   0  0  0  0  0  0  0  0  0  0  0  0
    4.2171   -0.3194    3.5559 H   0  0  0  0  0  0  0  0  0  0  0  0
   -1.9139    0.1232   -2.0183 H   0  0  0  0  0  0  0  0  0  0  0  0
  1  2  1  0
  2  3  1  0
  2  4  1  0
  4  5  1  0
  5  6  1  0
  6  7  2  0
  6  8  1  0
  8  9  1  0
  9 10  1  0
 10 11  1  0
 11 12  1  0
 12 13  1  0
 13 14  1  0
 14 15  1  0
 15 16  2  0
 15 17  1  0
 17 18  1  0
 17 19  1  0
 19 20  1  0
 19 21  1  0
 17 22  1  6
 22 23  1  0
 23 24  2  0
 23 25  1  0
 25 26  1  0
 26 27  1  0
 27 28  1  0
 28 29  1  0
 29 30  1  0
 30 31  2  0
 31 32  1  0
 32 33  1  0
 33 34  2  0
 34 35  1  0
 35 36  2  0
 36 37  1  0
 37 38  2  0
 37 39  1  0
 39 40  2  0
 31 41  1  0
 27 42  1  0
 13 43  1  6
 14  5  1  0
 12  8  1  0
 18 13  1  0
 40 25  1  0
 39 28  1  0
 38 30  1  0
 38 33  1  0
  1 44  1  0
  1 45  1  0
  1 46  1  0
  2 47  1  0
  3 48  1  0
  3 49  1  0
  3 50  1  0
  4 51  1  0
  4 52  1  0
  5 53  1  1
  9 54  1  0
  9 55  1  0
 10 56  1  0
 10 57  1  0
 11 58  1  0
 11 59  1  0
 12 60  1  1
 19 61  1  0
 20 62  1  0
 20 63  1  0
 20 64  1  0
 21 65  1  0
 21 66  1  0
 21 67  1  0
 22 68  1  0
 25 69  1  6
 26 70  1  0
 26 71  1  0
 28 72  1  1
 29 73  1  0
 29 74  1  0
 32 75  1  0
 34 76  1  0
 35 77  1  0
 36 78  1  0
 40 79  1  0
 42 80  1  0
 42 81  1  0
 42 82  1  0
 43 83  1  0
M  END
$$$$
