
     RDKit          3D

 26 25  0  0  0  0  0  0  0  0999 V2000
    3.0090    1.0935    0.5077 C   0  0  0  0  0  0  0  0  0  0  0  0
    1.5225    0.9352    0.2232 C   0  0  0  0  0  0  0  0  0  0  0  0
    1.1565   -0.5333   -0.0083 C   0  0  0  0  0  0  0  0  0  0  0  0
   -0.2597   -0.7433   -0.5777 C   0  0  0  0  0  0  0  0  0  0  0  0
   -1.3999   -0.7145    0.4569 C   0  0  0  0  0  0  0  0  0  0  0  0
   -1.8272    0.6558    0.9846 C   0  0  0  0  0  0  0  0  0  0  0  0
   -2.2133    1.6454   -0.1025 C   0  0  0  0  0  0  0  0  0  0  0  0
   -0.3054   -2.0789   -1.2932 C   0  0  0  0  0  0  0  0  0  0  0  0
   -0.0205   -3.1292   -0.4998 O   0  0  0  0  0  0  0  0  0  0  0  0
   -0.5783   -2.2523   -2.4697 O   0  0  0  0  0  0  0  0  0  0  0  0
    3.3130    0.4905    1.3709 H   0  0  0  0  0  0  0  0  0  0  0  0
    3.2464    2.1400    0.7229 H   0  0  0  0  0  0  0  0  0  0  0  0
    3.6092    0.7845   -0.3548 H   0  0  0  0  0  0  0  0  0  0  0  0
    0.9715    1.3384    1.0769 H   0  0  0  0  0  0  0  0  0  0  0  0
    1.2640    1.5364   -0.6568 H   0  0  0  0  0  0  0  0  0  0  0  0
    1.2769   -1.0938    0.9284 H   0  0  0  0  0  0  0  0  0  0  0  0
    1.8843   -0.9553   -0.7150 H   0  0  0  0  0  0  0  0  0  0  0  0
   -0.4435    0.0052   -1.3594 H   0  0  0  0  0  0  0  0  0  0  0  0
   -1.1321   -1.3433    1.3145 H   0  0  0  0  0  0  0  0  0  0  0  0
   -2.2885   -1.1899    0.0196 H   0  0  0  0  0  0  0  0  0  0  0  0
   -1.0455    1.0840    1.6170 H   0  0  0  0  0  0  0  0  0  0  0  0
   -2.6951    0.5102    1.6431 H   0  0  0  0  0  0  0  0  0  0  0  0
   -1.3436    1.9642   -0.6855 H   0  0  0  0  0  0  0  0  0  0  0  0
   -2.9500    1.2099   -0.7851 H   0  0  0  0  0  0  0  0  0  0  0  0
   -2.6573    2.5399    0.3468 H   0  0  0  0  0  0  0  0  0  0  0  0
   -0.0933   -3.8993   -1.0991 H   0  0  0  0  0  0  0  0  0  0  0  0
  1  2  1  0
  2  3  1  0
  3  4  1  0
  4  5  1  0
  5  6  1  0
  6  7  1  0
  4  8  1  0
  8  9  1  0
  8 10  2  0
  1 11  1  0
  1 12  1  0
  1 13  1  0
  2 14  1  0
  2 15  1  0
  3 16  1  0
  3 17  1  0
  4 18  1  0
  5 19  1  0
  5 20  1  0
  6 21  1  0
  6 22  1  0
  7 23  1  0
  7 24  1  0
  7 25  1  0
  9 26  1  0
M  END
$$$$
