
     RDKit          3D

 55 58  0  0  0  0  0  0  0  0999 V2000
   -1.6163   -0.2504   -1.8935 C   0  0  0  0  0  0  0  0  0  0  0  0
   -1.5795    0.1673   -0.3980 C   0  0  2  0  0  0  0  0  0  0  0  0
   -0.8845    1.5336   -0.2436 C   0  0  0  0  0  0  0  0  0  0  0  0
    0.6180    1.4869   -0.6066 C   0  0  1  0  0  0  0  0  0  0  0  0
    1.3954    0.3542    0.1292 C   0  0  1  0  0  0  0  0  0  0  0  0
    0.6576   -1.0244    0.1153 C   0  0  2  0  0  0  0  0  0  0  0  0
   -0.8188   -0.8442    0.4955 C   0  0  2  0  0  0  0  0  0  0  0  0
   -1.7349   -2.0754    0.5127 C   0  0  0  0  0  0  0  0  0  0  0  0
   -3.1633   -1.4988    0.3992 C   0  0  2  0  0  0  0  0  0  0  0  0
   -2.9943    0.0443    0.2447 C   0  0  2  0  0  0  0  0  0  0  0  0
   -4.1422    0.6541   -0.5696 C   0  0  0  0  0  0  0  0  0  0  0  0
   -4.5880    0.0931   -1.5813 O   0  0  0  0  0  0  0  0  0  0  0  0
   -4.6775    2.0049   -0.0810 C   0  0  0  0  0  0  0  0  0  0  0  0
   -5.5982    2.6254   -0.9587 O   0  0  0  0  0  0  0  0  0  0  0  0
   -3.0007    0.6166    1.5646 O   0  0  0  0  0  0  0  0  0  0  0  0
   -3.8925   -1.7731    1.5981 O   0  0  0  0  0  0  0  0  0  0  0  0
    1.3465   -2.0056    1.0895 C   0  0  0  0  0  0  0  0  0  0  0  0
    2.8488   -2.1539    0.8312 C   0  0  0  0  0  0  0  0  0  0  0  0
    3.5352   -0.8142    0.7236 C   0  0  0  0  0  0  0  0  0  0  0  0
    4.5900   -0.5180    1.5053 C   0  0  0  0  0  0  0  0  0  0  0  0
    5.2503    0.8078    1.4617 C   0  0  0  0  0  0  0  0  0  0  0  0
    6.2173    1.0589    2.1708 O   0  0  0  0  0  0  0  0  0  0  0  0
    4.7117    1.8036    0.5236 C   0  0  0  0  0  0  0  0  0  0  0  0
    3.6544    1.5201   -0.2518 C   0  0  0  0  0  0  0  0  0  0  0  0
    2.9186    0.1809   -0.2780 C   0  0  2  0  0  0  0  0  0  0  0  0
    3.1408   -0.3818   -1.7081 C   0  0  0  0  0  0  0  0  0  0  0  0
    1.3871    0.7644    1.4557 F   0  0  0  0  0  0  0  0  0  0  0  0
    0.7674    1.4374   -2.0188 O   0  0  0  0  0  0  0  0  0  0  0  0
   -0.6295   -0.4858   -2.2993 H   0  0  0  0  0  0  0  0  0  0  0  0
   -2.0378    0.5512   -2.5116 H   0  0  0  0  0  0  0  0  0  0  0  0
   -2.2198   -1.1431   -2.0700 H   0  0  0  0  0  0  0  0  0  0  0  0
   -1.3937    2.2798   -0.8695 H   0  0  0  0  0  0  0  0  0  0  0  0
   -0.9681    1.8839    0.7909 H   0  0  0  0  0  0  0  0  0  0  0  0
    1.0383    2.4507   -0.2860 H   0  0  0  0  0  0  0  0  0  0  0  0
    0.7024   -1.4628   -0.8874 H   0  0  0  0  0  0  0  0  0  0  0  0
   -0.8057   -0.4600    1.5282 H   0  0  0  0  0  0  0  0  0  0  0  0
   -1.5152   -2.7158   -0.3507 H   0  0  0  0  0  0  0  0  0  0  0  0
   -1.5926   -2.6726    1.4187 H   0  0  0  0  0  0  0  0  0  0  0  0
   -3.6796   -1.9697   -0.4458 H   0  0  0  0  0  0  0  0  0  0  0  0
   -5.1772    1.8348    0.8760 H   0  0  0  0  0  0  0  0  0  0  0  0
   -3.8371    2.6873    0.0602 H   0  0  0  0  0  0  0  0  0  0  0  0
   -6.0633    3.3138   -0.4518 H   0  0  0  0  0  0  0  0  0  0  0  0
   -3.4296   -0.0612    2.1358 H   0  0  0  0  0  0  0  0  0  0  0  0
   -4.7190   -2.2251    1.3193 H   0  0  0  0  0  0  0  0  0  0  0  0
    0.8791   -2.9951    1.0243 H   0  0  0  0  0  0  0  0  0  0  0  0
    1.2016   -1.6555    2.1212 H   0  0  0  0  0  0  0  0  0  0  0  0
    3.0132   -2.7233   -0.0923 H   0  0  0  0  0  0  0  0  0  0  0  0
    3.2828   -2.7540    1.6428 H   0  0  0  0  0  0  0  0  0  0  0  0
    5.0059   -1.2143    2.2256 H   0  0  0  0  0  0  0  0  0  0  0  0
    5.2154    2.7624    0.4934 H   0  0  0  0  0  0  0  0  0  0  0  0
    3.3198    2.2830   -0.9525 H   0  0  0  0  0  0  0  0  0  0  0  0
    2.8215    0.3136   -2.4945 H   0  0  0  0  0  0  0  0  0  0  0  0
    2.6127   -1.3260   -1.8860 H   0  0  0  0  0  0  0  0  0  0  0  0
    4.2096   -0.5787   -1.8874 H   0  0  0  0  0  0  0  0  0  0  0  0
    0.4177    2.2688   -2.3835 H   0  0  0  0  0  0  0  0  0  0  0  0
  2  1  1  6
  2  3  1  0
  3  4  1  0
  4  5  1  0
  5  6  1  0
  6  7  1  0
  7  8  1  0
  8  9  1  0
  9 10  1  0
 10 11  1  0
 11 12  2  0
 11 13  1  0
 13 14  1  0
 10 15  1  1
  9 16  1  0
  6 17  1  0
 17 18  1  0
 18 19  1  0
 19 20  2  0
 20 21  1  0
 21 22  2  0
 21 23  1  0
 23 24  2  0
 24 25  1  0
 25 26  1  6
  5 27  1  1
  4 28  1  0
  7  2  1  0
 10  2  1  0
 25  5  1  0
 25 19  1  0
  1 29  1  0
  1 30  1  0
  1 31  1  0
  3 32  1  0
  3 33  1  0
  4 34  1  1
  6 35  1  6
  7 36  1  1
  8 37  1  0
  8 38  1  0
  9 39  1  6
 13 40  1  0
 13 41  1  0
 14 42  1  0
 15 43  1  0
 16 44  1  0
 17 45  1  0
 17 46  1  0
 18 47  1  0
 18 48  1  0
 20 49  1  0
 23 50  1  0
 24 51  1  0
 26 52  1  0
 26 53  1  0
 26 54  1  0
 28 55  1  0
M  END
$$$$
