
     RDKit          3D

 68 72  0  0  0  0  0  0  0  0999 V2000
    4.7033   -1.9355    1.8768 C   0  0  0  0  0  0  0  0  0  0  0  0
    4.8511   -1.3924    0.4595 C   0  0  1  0  0  0  0  0  0  0  0  0
    4.8635   -2.4837   -0.6340 C   0  0  2  0  0  0  0  0  0  0  0  0
    4.3396   -1.8916   -1.9548 C   0  0  2  0  0  0  0  0  0  0  0  0
    2.9144   -1.3525   -1.7735 C   0  0  0  0  0  0  0  0  0  0  0  0
    2.6567   -0.8755   -0.3383 C   0  0  1  0  0  0  0  0  0  0  0  0
    3.8625   -0.3762    0.2240 O   0  0  0  0  0  0  0  0  0  0  0  0
    1.6909    0.1765   -0.4118 O   0  0  0  0  0  0  0  0  0  0  0  0
    1.1796    0.5520    0.8760 C   0  0  1  0  0  0  0  0  0  0  0  0
    1.9233    1.7875    1.3889 C   0  0  0  0  0  0  0  0  0  0  0  0
    1.6938    2.9975    0.4752 C   0  0  1  0  0  0  0  0  0  0  0  0
    0.1967    3.3403    0.3916 C   0  0  0  0  0  0  0  0  0  0  0  0
   -0.7422    2.1445    0.3747 C   0  0  0  0  0  0  0  0  0  0  0  0
   -0.2910    0.8389    0.6511 C   0  0  0  0  0  0  0  0  0  0  0  0
   -1.2198   -0.2199    0.6478 C   0  0  0  0  0  0  0  0  0  0  0  0
   -2.5861   -0.0017    0.3865 C   0  0  0  0  0  0  0  0  0  0  0  0
   -3.0262    1.2903    0.1250 C   0  0  0  0  0  0  0  0  0  0  0  0
   -2.1086    2.3551    0.1238 C   0  0  0  0  0  0  0  0  0  0  0  0
   -2.4999    3.6499   -0.1181 O   0  0  0  0  0  0  0  0  0  0  0  0
   -4.4524    1.5346   -0.1488 C   0  0  0  0  0  0  0  0  0  0  0  0
   -4.8309    2.6763   -0.4008 O   0  0  0  0  0  0  0  0  0  0  0  0
   -5.4149    0.4195   -0.1168 C   0  0  0  0  0  0  0  0  0  0  0  0
   -4.9950   -0.8867    0.1481 C   0  0  0  0  0  0  0  0  0  0  0  0
   -3.5450   -1.1315    0.3813 C   0  0  0  0  0  0  0  0  0  0  0  0
   -3.0886   -2.2552    0.5686 O   0  0  0  0  0  0  0  0  0  0  0  0
   -5.9502   -1.9278    0.1765 C   0  0  0  0  0  0  0  0  0  0  0  0
   -7.3003   -1.6291   -0.0597 C   0  0  0  0  0  0  0  0  0  0  0  0
   -7.7059   -0.3227   -0.3274 C   0  0  0  0  0  0  0  0  0  0  0  0
   -6.7665    0.7008   -0.3563 C   0  0  0  0  0  0  0  0  0  0  0  0
   -5.5057   -3.1917    0.4541 O   0  0  0  0  0  0  0  0  0  0  0  0
   -6.4159   -4.2756    0.3393 C   0  0  0  0  0  0  0  0  0  0  0  0
   -0.7258   -1.4756    0.9108 O   0  0  0  0  0  0  0  0  0  0  0  0
    2.4525    4.1939    1.0856 C   0  0  0  0  0  0  0  0  0  0  0  0
    2.1656    4.6361    2.2042 O   0  0  0  0  0  0  0  0  0  0  0  0
    3.5387    4.8574    0.2366 C   0  0  0  0  0  0  0  0  0  0  0  0
    4.4677    3.9580   -0.3456 O   0  0  0  0  0  0  0  0  0  0  0  0
    2.1851    2.7362   -0.8486 O   0  0  0  0  0  0  0  0  0  0  0  0
    4.3504   -2.9161   -3.0173 N   0  0  0  0  0  0  0  0  0  0  0  0
    4.0304   -3.6007   -0.2910 O   0  0  0  0  0  0  0  0  0  0  0  0
    5.4993   -2.6475    2.1115 H   0  0  0  0  0  0  0  0  0  0  0  0
    4.7452   -1.1171    2.6028 H   0  0  0  0  0  0  0  0  0  0  0  0
    3.7383   -2.4296    2.0205 H   0  0  0  0  0  0  0  0  0  0  0  0
    5.8083   -0.8586    0.4033 H   0  0  0  0  0  0  0  0  0  0  0  0
    5.8823   -2.8756   -0.7427 H   0  0  0  0  0  0  0  0  0  0  0  0
    4.9978   -1.0687   -2.2622 H   0  0  0  0  0  0  0  0  0  0  0  0
    2.7486   -0.5367   -2.4930 H   0  0  0  0  0  0  0  0  0  0  0  0
    2.1536   -2.1073   -2.0199 H   0  0  0  0  0  0  0  0  0  0  0  0
    2.2549   -1.6986    0.2675 H   0  0  0  0  0  0  0  0  0  0  0  0
    1.3000   -0.2529    1.6114 H   0  0  0  0  0  0  0  0  0  0  0  0
    1.5874    2.0162    2.4094 H   0  0  0  0  0  0  0  0  0  0  0  0
    2.9972    1.5799    1.4478 H   0  0  0  0  0  0  0  0  0  0  0  0
    0.0274    3.9347   -0.5160 H   0  0  0  0  0  0  0  0  0  0  0  0
   -0.0984    3.9556    1.2517 H   0  0  0  0  0  0  0  0  0  0  0  0
   -3.4681    3.6606   -0.2929 H   0  0  0  0  0  0  0  0  0  0  0  0
   -8.0690   -2.3962   -0.0363 H   0  0  0  0  0  0  0  0  0  0  0  0
   -8.7562   -0.1028   -0.5073 H   0  0  0  0  0  0  0  0  0  0  0  0
   -7.0938    1.7192   -0.5624 H   0  0  0  0  0  0  0  0  0  0  0  0
   -6.8453   -4.3279   -0.6654 H   0  0  0  0  0  0  0  0  0  0  0  0
   -5.8578   -5.2002    0.5090 H   0  0  0  0  0  0  0  0  0  0  0  0
   -7.1988   -4.2119    1.1021 H   0  0  0  0  0  0  0  0  0  0  0  0
   -1.4678   -2.1238    0.8440 H   0  0  0  0  0  0  0  0  0  0  0  0
    4.1043    5.5405    0.8814 H   0  0  0  0  0  0  0  0  0  0  0  0
    3.0609    5.4485   -0.5542 H   0  0  0  0  0  0  0  0  0  0  0  0
    3.9238    3.3325   -0.8702 H   0  0  0  0  0  0  0  0  0  0  0  0
    1.9571    1.8027   -1.0575 H   0  0  0  0  0  0  0  0  0  0  0  0
    5.3175   -3.1679   -3.2243 H   0  0  0  0  0  0  0  0  0  0  0  0
    3.9791   -2.5091   -3.8787 H   0  0  0  0  0  0  0  0  0  0  0  0
    3.8777   -4.0618   -1.1427 H   0  0  0  0  0  0  0  0  0  0  0  0
  1  2  1  0
  2  3  1  0
  3  4  1  0
  4  5  1  0
  5  6  1  0
  6  7  1  0
  6  8  1  0
  8  9  1  0
  9 10  1  0
 10 11  1  0
 11 12  1  0
 12 13  1  0
 13 14  2  0
 14 15  1  0
 15 16  2  0
 16 17  1  0
 17 18  2  0
 18 19  1  0
 17 20  1  0
 20 21  2  0
 20 22  1  0
 22 23  2  0
 23 24  1  0
 24 25  2  0
 23 26  1  0
 26 27  2  0
 27 28  1  0
 28 29  2  0
 26 30  1  0
 30 31  1  0
 15 32  1  0
 11 33  1  0
 33 34  2  0
 33 35  1  0
 35 36  1  0
 11 37  1  6
  4 38  1  0
  3 39  1  0
  7  2  1  0
 14  9  1  0
 18 13  1  0
 24 16  1  0
 29 22  1  0
  1 40  1  0
  1 41  1  0
  1 42  1  0
  2 43  1  1
  3 44  1  6
  4 45  1  6
  5 46  1  0
  5 47  1  0
  6 48  1  1
  9 49  1  1
 10 50  1  0
 10 51  1  0
 12 52  1  0
 12 53  1  0
 19 54  1  0
 27 55  1  0
 28 56  1  0
 29 57  1  0
 31 58  1  0
 31 59  1  0
 31 60  1  0
 32 61  1  0
 35 62  1  0
 35 63  1  0
 36 64  1  0
 37 65  1  0
 38 66  1  0
 38 67  1  0
 39 68  1  0
M  END
$$$$
