
     RDKit          3D

 30 32  0  0  0  0  0  0  0  0999 V2000
    4.7595   -1.0325    0.5368 C   0  0  0  0  0  0  0  0  0  0  0  0
    3.3928   -0.4136    0.5155 C   0  0  0  0  0  0  0  0  0  0  0  0
    2.2638   -1.1944    0.2369 C   0  0  0  0  0  0  0  0  0  0  0  0
    0.9890   -0.6104    0.1858 C   0  0  0  0  0  0  0  0  0  0  0  0
    0.8356    0.7578    0.4021 C   0  0  0  0  0  0  0  0  0  0  0  0
    1.9664    1.5404    0.6659 C   0  0  0  0  0  0  0  0  0  0  0  0
    3.2341    0.9620    0.7172 C   0  0  0  0  0  0  0  0  0  0  0  0
    1.9098    2.8909    0.8833 O   0  0  0  0  0  0  0  0  0  0  0  0
   -0.5078    1.3626    0.3461 C   0  0  0  0  0  0  0  0  0  0  0  0
   -0.6478    2.5701    0.5359 O   0  0  0  0  0  0  0  0  0  0  0  0
   -1.6864    0.5230    0.0624 C   0  0  0  0  0  0  0  0  0  0  0  0
   -1.5264   -0.8456   -0.1546 C   0  0  0  0  0  0  0  0  0  0  0  0
   -0.1848   -1.4597   -0.1019 C   0  0  0  0  0  0  0  0  0  0  0  0
   -0.0452   -2.6613   -0.2945 O   0  0  0  0  0  0  0  0  0  0  0  0
   -2.6411   -1.6496   -0.4250 C   0  0  0  0  0  0  0  0  0  0  0  0
   -3.9073   -1.0764   -0.4758 C   0  0  0  0  0  0  0  0  0  0  0  0
   -4.0836    0.2856   -0.2618 C   0  0  0  0  0  0  0  0  0  0  0  0
   -2.9716    1.0817    0.0068 C   0  0  0  0  0  0  0  0  0  0  0  0
   -3.2189    2.4137    0.2070 O   0  0  0  0  0  0  0  0  0  0  0  0
   -4.9634   -1.8951   -0.7417 O   0  0  0  0  0  0  0  0  0  0  0  0
    4.7125   -2.0702    0.8836 H   0  0  0  0  0  0  0  0  0  0  0  0
    5.1941   -1.0138   -0.4673 H   0  0  0  0  0  0  0  0  0  0  0  0
    5.4226   -0.4917    1.2201 H   0  0  0  0  0  0  0  0  0  0  0  0
    2.3758   -2.2641    0.0594 H   0  0  0  0  0  0  0  0  0  0  0  0
    4.0979    1.5935    0.9171 H   0  0  0  0  0  0  0  0  0  0  0  0
    0.9717    3.1766    0.8237 H   0  0  0  0  0  0  0  0  0  0  0  0
   -2.5275   -2.7185   -0.5959 H   0  0  0  0  0  0  0  0  0  0  0  0
   -5.0679    0.7425   -0.2994 H   0  0  0  0  0  0  0  0  0  0  0  0
   -2.3644    2.8662    0.3854 H   0  0  0  0  0  0  0  0  0  0  0  0
   -5.7813   -1.3694   -0.7478 H   0  0  0  0  0  0  0  0  0  0  0  0
  1  2  1  0
  2  3  2  0
  3  4  1  0
  4  5  2  0
  5  6  1  0
  6  7  2  0
  6  8  1  0
  5  9  1  0
  9 10  2  0
  9 11  1  0
 11 12  2  0
 12 13  1  0
 13 14  2  0
 12 15  1  0
 15 16  2  0
 16 17  1  0
 17 18  2  0
 18 19  1  0
 16 20  1  0
  7  2  1  0
 13  4  1  0
 18 11  1  0
  1 21  1  0
  1 22  1  0
  1 23  1  0
  3 24  1  0
  7 25  1  0
  8 26  1  0
 15 27  1  0
 17 28  1  0
 19 29  1  0
 20 30  1  0
M  END
$$$$
