
     RDKit          3D

 16 16  0  0  0  0  0  0  0  0999 V2000
   -1.3535   -1.6451   -0.0221 C   0  0  0  0  0  0  0  0  0  0  0  0
   -2.0204   -0.7358    0.7972 C   0  0  0  0  0  0  0  0  0  0  0  0
   -1.4484    0.5066    1.0707 C   0  0  0  0  0  0  0  0  0  0  0  0
   -0.2090    0.8416    0.5254 C   0  0  0  0  0  0  0  0  0  0  0  0
    0.4717   -0.0638   -0.2999 C   0  0  0  0  0  0  0  0  0  0  0  0
   -0.1121   -1.3114   -0.5690 C   0  0  0  0  0  0  0  0  0  0  0  0
    1.7909    0.2128   -0.9188 C   0  0  0  0  0  0  0  0  0  0  0  0
    2.4187   -0.5397   -1.6400 O   0  0  0  0  0  0  0  0  0  0  0  0
    2.2760    1.4329   -0.6065 O   0  0  0  0  0  0  0  0  0  0  0  0
    0.2692    2.0819    0.8513 O   0  0  0  0  0  0  0  0  0  0  0  0
   -1.7989   -2.6139   -0.2356 H   0  0  0  0  0  0  0  0  0  0  0  0
   -2.9867   -0.9932    1.2241 H   0  0  0  0  0  0  0  0  0  0  0  0
   -1.9678    1.2164    1.7095 H   0  0  0  0  0  0  0  0  0  0  0  0
    0.3984   -2.0306   -1.2073 H   0  0  0  0  0  0  0  0  0  0  0  0
    3.1349    1.4539   -1.0863 H   0  0  0  0  0  0  0  0  0  0  0  0
    1.1371    2.1875    0.4073 H   0  0  0  0  0  0  0  0  0  0  0  0
  1  2  2  0
  2  3  1  0
  3  4  2  0
  4  5  1  0
  5  6  2  0
  5  7  1  0
  7  8  2  0
  7  9  1  0
  4 10  1  0
  6  1  1  0
  1 11  1  0
  2 12  1  0
  3 13  1  0
  6 14  1  0
  9 15  1  0
 10 16  1  0
M  END
$$$$
