
     RDKit          3D

 12 12  0  0  0  0  0  0  0  0999 V2000
    1.0227   -0.9001   -0.2058 C   0  0  0  0  0  0  0  0  0  0  0  0
    0.8857    0.1155   -1.0588 C   0  0  0  0  0  0  0  0  0  0  0  0
   -0.2056    1.0960   -0.8590 C   0  0  0  0  0  0  0  0  0  0  0  0
   -0.3831    2.0498   -1.6080 O   0  0  0  0  0  0  0  0  0  0  0  0
   -1.0080    0.8591    0.2305 N   0  0  0  0  0  0  0  0  0  0  0  0
   -0.8717   -0.1820    1.1093 C   0  0  0  0  0  0  0  0  0  0  0  0
   -1.6228   -0.3384    2.0648 O   0  0  0  0  0  0  0  0  0  0  0  0
    0.1642   -1.0440    0.8520 N   0  0  0  0  0  0  0  0  0  0  0  0
    1.7058    0.2942   -2.1099 F   0  0  0  0  0  0  0  0  0  0  0  0
    1.8072   -1.6402   -0.3148 H   0  0  0  0  0  0  0  0  0  0  0  0
   -1.7622    1.5066    0.3983 H   0  0  0  0  0  0  0  0  0  0  0  0
    0.2678   -1.8165    1.5014 H   0  0  0  0  0  0  0  0  0  0  0  0
  1  2  2  0
  2  3  1  0
  3  4  2  0
  3  5  1  0
  5  6  1  0
  6  7  2  0
  6  8  1  0
  2  9  1  0
  8  1  1  0
  1 10  1  0
  5 11  1  0
  8 12  1  0
M  END
$$$$
