
     RDKit          3D

 30 30  0  0  0  0  0  0  0  0999 V2000
    4.1995   -1.0085   -0.5781 C   0  0  0  0  0  0  0  0  0  0  0  0
    3.1817   -0.1551    0.1770 C   0  0  0  0  0  0  0  0  0  0  0  0
    3.5129    1.3275    0.0150 C   0  0  0  0  0  0  0  0  0  0  0  0
    1.7551   -0.4431   -0.3027 C   0  0  0  0  0  0  0  0  0  0  0  0
    1.5309   -1.1039   -1.3107 O   0  0  0  0  0  0  0  0  0  0  0  0
    0.7953    0.1236    0.5235 N   0  0  0  0  0  0  0  0  0  0  0  0
   -0.6066    0.0752    0.3743 C   0  0  0  0  0  0  0  0  0  0  0  0
   -1.2600   -0.5648   -0.6841 C   0  0  0  0  0  0  0  0  0  0  0  0
   -2.6657   -0.5797   -0.7774 C   0  0  0  0  0  0  0  0  0  0  0  0
   -3.4223    0.0735    0.2058 C   0  0  0  0  0  0  0  0  0  0  0  0
   -2.7718    0.7152    1.2660 C   0  0  0  0  0  0  0  0  0  0  0  0
   -1.3720    0.7172    1.3538 C   0  0  0  0  0  0  0  0  0  0  0  0
   -3.5614    1.3978    2.2995 N   0  0  0  0  0  4  0  0  0  0  0  0
   -2.9453    1.9440    3.2256 O   0  0  0  0  0  1  0  0  0  0  0  0
   -4.7942    1.3867    2.1832 O   0  0  0  0  0  0  0  0  0  0  0  0
   -3.3351   -1.2650   -1.9465 C   0  0  0  0  0  0  0  0  0  0  0  0
   -4.6561   -1.5162   -1.7290 F   0  0  0  0  0  0  0  0  0  0  0  0
   -3.2785   -0.5184   -3.0819 F   0  0  0  0  0  0  0  0  0  0  0  0
   -2.7745   -2.4664   -2.2500 F   0  0  0  0  0  0  0  0  0  0  0  0
    3.9697   -2.0742   -0.4708 H   0  0  0  0  0  0  0  0  0  0  0  0
    4.2022   -0.7757   -1.6488 H   0  0  0  0  0  0  0  0  0  0  0  0
    5.2105   -0.8418   -0.1919 H   0  0  0  0  0  0  0  0  0  0  0  0
    3.2376   -0.4234    1.2396 H   0  0  0  0  0  0  0  0  0  0  0  0
    2.8460    1.9562    0.6139 H   0  0  0  0  0  0  0  0  0  0  0  0
    3.4092    1.6426   -1.0293 H   0  0  0  0  0  0  0  0  0  0  0  0
    4.5394    1.5354    0.3347 H   0  0  0  0  0  0  0  0  0  0  0  0
    1.1419    0.6164    1.3381 H   0  0  0  0  0  0  0  0  0  0  0  0
   -0.6977   -1.0706   -1.4671 H   0  0  0  0  0  0  0  0  0  0  0  0
   -4.5103    0.0745    0.1349 H   0  0  0  0  0  0  0  0  0  0  0  0
   -0.8803    1.2211    2.1835 H   0  0  0  0  0  0  0  0  0  0  0  0
  1  2  1  0
  2  3  1  0
  2  4  1  0
  4  5  2  0
  4  6  1  0
  6  7  1  0
  7  8  2  0
  8  9  1  0
  9 10  2  0
 10 11  1  0
 11 12  2  0
 11 13  1  0
 13 14  1  0
 13 15  2  0
  9 16  1  0
 16 17  1  0
 16 18  1  0
 16 19  1  0
 12  7  1  0
  1 20  1  0
  1 21  1  0
  1 22  1  0
  2 23  1  0
  3 24  1  0
  3 25  1  0
  3 26  1  0
  6 27  1  0
  8 28  1  0
 10 29  1  0
 12 30  1  0
M  CHG  2  13   1  14  -1
M  END
$$$$
