
     RDKit          3D

 37 39  0  0  0  0  0  0  0  0999 V2000
   -3.2901   -0.9377    1.1718 C   0  0  0  0  0  0  0  0  0  0  0  0
   -3.9195    0.4475    1.0501 C   0  0  0  0  0  0  0  0  0  0  0  0
   -3.0039    1.5027    0.6247 N   0  0  0  0  0  0  0  0  0  0  0  0
   -2.6911    1.4181   -0.8038 C   0  0  0  0  0  0  0  0  0  0  0  0
   -1.4761    0.5525   -1.1784 C   0  0  0  0  0  0  0  0  0  0  0  0
   -1.3331   -0.7104   -0.3994 N   0  0  0  0  0  0  0  0  0  0  0  0
   -2.5938   -1.4292   -0.0931 C   0  0  0  0  0  0  0  0  0  0  0  0
   -0.1128   -0.7359    0.7929 S   0  0  0  0  0  6  0  0  0  0  0  0
   -0.1194   -2.0370    1.4251 O   0  0  0  0  0  0  0  0  0  0  0  0
   -0.2886    0.4830    1.5557 O   0  0  0  0  0  0  0  0  0  0  0  0
    1.4019   -0.6412   -0.1490 C   0  0  0  0  0  0  0  0  0  0  0  0
    1.4137   -1.3124   -1.3854 C   0  0  0  0  0  0  0  0  0  0  0  0
    2.5314   -1.2489   -2.2073 C   0  0  0  0  0  0  0  0  0  0  0  0
    3.6438   -0.5220   -1.7970 C   0  0  0  0  0  0  0  0  0  0  0  0
    3.6603    0.1320   -0.5522 C   0  0  0  0  0  0  0  0  0  0  0  0
    2.5408    0.0793    0.3120 C   0  0  0  0  0  0  0  0  0  0  0  0
    2.6779    0.7326    1.5603 C   0  0  0  0  0  0  0  0  0  0  0  0
    3.8505    1.4073    1.8698 C   0  0  0  0  0  0  0  0  0  0  0  0
    4.9090    1.4825    1.0456 N   0  0  0  0  0  0  0  0  0  0  0  0
    4.7904    0.8415   -0.1364 C   0  0  0  0  0  0  0  0  0  0  0  0
   -4.0916   -1.6465    1.4163 H   0  0  0  0  0  0  0  0  0  0  0  0
   -2.6097   -0.9539    2.0298 H   0  0  0  0  0  0  0  0  0  0  0  0
   -4.3110    0.7269    2.0356 H   0  0  0  0  0  0  0  0  0  0  0  0
   -4.7946    0.4091    0.3894 H   0  0  0  0  0  0  0  0  0  0  0  0
   -2.1335    1.4387    1.1688 H   0  0  0  0  0  0  0  0  0  0  0  0
   -2.4914    2.4358   -1.1609 H   0  0  0  0  0  0  0  0  0  0  0  0
   -3.5691    1.0882   -1.3739 H   0  0  0  0  0  0  0  0  0  0  0  0
   -1.5350    0.2858   -2.2405 H   0  0  0  0  0  0  0  0  0  0  0  0
   -0.5694    1.1600   -1.0745 H   0  0  0  0  0  0  0  0  0  0  0  0
   -2.3538   -2.4940    0.0151 H   0  0  0  0  0  0  0  0  0  0  0  0
   -3.2711   -1.3692   -0.9535 H   0  0  0  0  0  0  0  0  0  0  0  0
    0.5517   -1.8918   -1.7106 H   0  0  0  0  0  0  0  0  0  0  0  0
    2.5385   -1.7657   -3.1639 H   0  0  0  0  0  0  0  0  0  0  0  0
    4.5129   -0.4800   -2.4519 H   0  0  0  0  0  0  0  0  0  0  0  0
    1.8978    0.7231    2.3134 H   0  0  0  0  0  0  0  0  0  0  0  0
    3.9652    1.9155    2.8234 H   0  0  0  0  0  0  0  0  0  0  0  0
    5.6728    0.9136   -0.7681 H   0  0  0  0  0  0  0  0  0  0  0  0
  1  2  1  0
  2  3  1  0
  3  4  1  0
  4  5  1  0
  5  6  1  0
  6  7  1  0
  6  8  1  0
  8  9  2  0
  8 10  2  0
  8 11  1  0
 11 12  2  0
 12 13  1  0
 13 14  2  0
 14 15  1  0
 15 16  2  0
 16 17  1  0
 17 18  2  0
 18 19  1  0
 19 20  2  0
  7  1  1  0
 16 11  1  0
 20 15  1  0
  1 21  1  0
  1 22  1  0
  2 23  1  0
  2 24  1  0
  3 25  1  0
  4 26  1  0
  4 27  1  0
  5 28  1  0
  5 29  1  0
  7 30  1  0
  7 31  1  0
 12 32  1  0
 13 33  1  0
 14 34  1  0
 17 35  1  0
 18 36  1  0
 20 37  1  0
M  END
$$$$
