
     RDKit          3D

 45 46  0  0  0  0  0  0  0  0999 V2000
    7.3430    1.0207   -0.0063 C   0  0  0  0  0  0  0  0  0  0  0  0
    6.5167    0.3834   -0.9737 O   0  0  0  0  0  0  0  0  0  0  0  0
    5.2084    0.1755   -0.6197 C   0  0  0  0  0  0  0  0  0  0  0  0
    4.4280   -0.4648   -1.5885 C   0  0  0  0  0  0  0  0  0  0  0  0
    3.0831   -0.7454   -1.3760 C   0  0  0  0  0  0  0  0  0  0  0  0
    2.4835   -0.3845   -0.1646 C   0  0  0  0  0  0  0  0  0  0  0  0
    3.2564    0.2634    0.8100 C   0  0  0  0  0  0  0  0  0  0  0  0
    4.6117    0.5402    0.5858 C   0  0  0  0  0  0  0  0  0  0  0  0
    1.0201   -0.6620    0.0742 C   0  0  0  0  0  0  0  0  0  0  0  0
    0.1366    0.4623   -0.4740 C   0  0  0  0  0  0  0  0  0  0  0  0
   -1.3291    0.1858   -0.2336 C   0  0  0  0  0  0  0  0  0  0  0  0
   -1.9546    0.6533    0.9333 C   0  0  0  0  0  0  0  0  0  0  0  0
   -3.3047    0.3868    1.1731 C   0  0  0  0  0  0  0  0  0  0  0  0
   -4.0302   -0.3474    0.2192 C   0  0  0  0  0  0  0  0  0  0  0  0
   -3.4160   -0.8473   -0.9418 C   0  0  0  0  0  0  0  0  0  0  0  0
   -2.0652   -0.5683   -1.1619 C   0  0  0  0  0  0  0  0  0  0  0  0
   -4.2145   -1.5720   -1.7887 O   0  0  0  0  0  0  0  0  0  0  0  0
   -3.5857   -2.2200   -2.8854 C   0  0  0  0  0  0  0  0  0  0  0  0
   -5.3526   -0.6499    0.4662 O   0  0  0  0  0  0  0  0  0  0  0  0
   -6.1888    0.3631   -0.0894 C   0  0  0  0  0  0  0  0  0  0  0  0
   -4.0014    0.8024    2.2786 O   0  0  0  0  0  0  0  0  0  0  0  0
   -3.2622    1.4129    3.3265 C   0  0  0  0  0  0  0  0  0  0  0  0
    4.9819   -0.8326   -2.7854 O   0  0  0  0  0  0  0  0  0  0  0  0
    8.3477    1.1075   -0.4309 H   0  0  0  0  0  0  0  0  0  0  0  0
    7.4179    0.4200    0.9062 H   0  0  0  0  0  0  0  0  0  0  0  0
    6.9855    2.0322    0.2128 H   0  0  0  0  0  0  0  0  0  0  0  0
    2.5135   -1.2433   -2.1558 H   0  0  0  0  0  0  0  0  0  0  0  0
    2.8072    0.5577    1.7565 H   0  0  0  0  0  0  0  0  0  0  0  0
    5.1660    1.0405    1.3725 H   0  0  0  0  0  0  0  0  0  0  0  0
    0.8443   -0.7968    1.1496 H   0  0  0  0  0  0  0  0  0  0  0  0
    0.7545   -1.6213   -0.3892 H   0  0  0  0  0  0  0  0  0  0  0  0
    0.4075    1.4214   -0.0131 H   0  0  0  0  0  0  0  0  0  0  0  0
    0.3070    0.5967   -1.5504 H   0  0  0  0  0  0  0  0  0  0  0  0
   -1.3633    1.2271    1.6398 H   0  0  0  0  0  0  0  0  0  0  0  0
   -1.5575   -0.9253   -2.0525 H   0  0  0  0  0  0  0  0  0  0  0  0
   -4.3458   -2.8117   -3.4047 H   0  0  0  0  0  0  0  0  0  0  0  0
   -3.1899   -1.4894   -3.5982 H   0  0  0  0  0  0  0  0  0  0  0  0
   -2.8035   -2.9074   -2.5466 H   0  0  0  0  0  0  0  0  0  0  0  0
   -6.0756    0.4237   -1.1774 H   0  0  0  0  0  0  0  0  0  0  0  0
   -7.2273    0.0947    0.1263 H   0  0  0  0  0  0  0  0  0  0  0  0
   -5.9915    1.3395    0.3665 H   0  0  0  0  0  0  0  0  0  0  0  0
   -3.9527    1.6096    4.1523 H   0  0  0  0  0  0  0  0  0  0  0  0
   -2.8468    2.3737    3.0055 H   0  0  0  0  0  0  0  0  0  0  0  0
   -2.4775    0.7470    3.7007 H   0  0  0  0  0  0  0  0  0  0  0  0
    5.9157   -0.5519   -2.7244 H   0  0  0  0  0  0  0  0  0  0  0  0
  1  2  1  0
  2  3  1  0
  3  4  2  0
  4  5  1  0
  5  6  2  0
  6  7  1  0
  7  8  2  0
  6  9  1  0
  9 10  1  0
 10 11  1  0
 11 12  2  0
 12 13  1  0
 13 14  2  0
 14 15  1  0
 15 16  2  0
 15 17  1  0
 17 18  1  0
 14 19  1  0
 19 20  1  0
 13 21  1  0
 21 22  1  0
  4 23  1  0
  8  3  1  0
 16 11  1  0
  1 24  1  0
  1 25  1  0
  1 26  1  0
  5 27  1  0
  7 28  1  0
  8 29  1  0
  9 30  1  0
  9 31  1  0
 10 32  1  0
 10 33  1  0
 12 34  1  0
 16 35  1  0
 18 36  1  0
 18 37  1  0
 18 38  1  0
 20 39  1  0
 20 40  1  0
 20 41  1  0
 22 42  1  0
 22 43  1  0
 22 44  1  0
 23 45  1  0
M  END
$$$$
