
     RDKit          3D

 24 24  0  0  0  0  0  0  0  0999 V2000
   -2.5640   -0.3061    1.0348 C   0  0  0  0  0  0  0  0  0  0  0  0
   -1.8228   -0.3271   -0.3078 C   0  0  0  0  0  0  0  0  0  0  0  0
   -2.3687    0.7545   -1.2483 C   0  0  0  0  0  0  0  0  0  0  0  0
   -0.2900   -0.2322   -0.1327 C   0  0  0  0  0  0  0  0  0  0  0  0
    0.2118    0.8824    0.4280 C   0  0  0  0  0  0  0  0  0  0  0  0
    1.6693    1.1903    0.6957 C   0  0  0  0  0  0  0  0  0  0  0  0
    1.9162    2.2665    1.2166 O   0  0  0  0  0  0  0  0  0  0  0  0
    2.8906    0.3282    0.3996 C   0  0  0  0  0  0  0  0  0  0  0  0
    2.8352   -0.8769   -0.1649 C   0  0  0  0  0  0  0  0  0  0  0  0
    1.7568   -1.5547   -0.5719 C   0  0  0  0  0  0  0  0  0  0  0  0
    0.4444   -1.2811   -0.5571 C   0  0  0  0  0  0  0  0  0  0  0  0
    4.1220    0.8660    0.7548 O   0  0  0  0  0  0  0  0  0  0  0  0
   -3.6322   -0.4971    0.8843 H   0  0  0  0  0  0  0  0  0  0  0  0
   -2.4711    0.6603    1.5415 H   0  0  0  0  0  0  0  0  0  0  0  0
   -2.1789   -1.0811    1.7065 H   0  0  0  0  0  0  0  0  0  0  0  0
   -2.0747   -1.2888   -0.7761 H   0  0  0  0  0  0  0  0  0  0  0  0
   -3.4329    0.5859   -1.4471 H   0  0  0  0  0  0  0  0  0  0  0  0
   -2.2689    1.7587   -0.8232 H   0  0  0  0  0  0  0  0  0  0  0  0
   -1.8440    0.7380   -2.2099 H   0  0  0  0  0  0  0  0  0  0  0  0
   -0.4627    1.6751    0.7385 H   0  0  0  0  0  0  0  0  0  0  0  0
    3.7982   -1.3697   -0.3115 H   0  0  0  0  0  0  0  0  0  0  0  0
    1.9995   -2.5314   -1.0049 H   0  0  0  0  0  0  0  0  0  0  0  0
   -0.1403   -2.1015   -0.9882 H   0  0  0  0  0  0  0  0  0  0  0  0
    3.9072    1.7420    1.1432 H   0  0  0  0  0  0  0  0  0  0  0  0
  1  2  1  0
  2  3  1  0
  2  4  1  0
  4  5  2  0
  5  6  1  0
  6  7  2  0
  6  8  1  0
  8  9  2  0
  9 10  1  0
 10 11  2  0
  8 12  1  0
 11  4  1  0
  1 13  1  0
  1 14  1  0
  1 15  1  0
  2 16  1  0
  3 17  1  0
  3 18  1  0
  3 19  1  0
  5 20  1  0
  9 21  1  0
 10 22  1  0
 11 23  1  0
 12 24  1  0
M  END
$$$$
