
     RDKit          3D

113119  0  0  0  0  0  0  0  0999 V2000
    0.6711   -1.9502   -3.2731 C   0  0  0  0  0  0  0  0  0  0  0  0
    0.1687   -1.0283   -2.2400 C   0  0  0  0  0  0  0  0  0  0  0  0
   -1.1211   -0.5032   -2.3627 C   0  0  0  0  0  0  0  0  0  0  0  0
   -2.3248   -1.0400   -3.1497 C   0  0  2  0  0  0  0  0  0  0  0  0
   -3.8011   -1.0311   -2.4584 C   0  0  0  0  0  0  0  0  0  0  0  0
   -4.6527   -0.3145   -2.9611 O   0  0  0  0  0  0  0  0  0  0  0  0
   -4.1422   -1.8134   -1.0333 C   0  0  2  0  0  0  0  0  0  0  0  0
   -5.7508   -1.8763   -1.0369 C   0  0  2  0  0  0  0  0  0  0  0  0
   -6.4895   -1.1948    0.1247 C   0  0  0  0  0  0  0  0  0  0  0  0
   -5.8925   -1.4459    1.5362 C   0  0  2  0  0  0  0  0  0  0  0  0
   -4.4030   -1.8398    1.6487 C   0  0  2  0  0  0  0  0  0  0  0  0
   -3.8164   -1.0109    0.4151 C   0  0  1  0  0  0  0  0  0  0  0  0
   -2.5165   -0.2118    0.8757 C   0  0  1  0  0  0  0  0  0  0  0  0
   -1.3514   -0.3511   -0.0489 C   0  0  1  0  0  0  0  0  0  0  0  0
   -1.4150    0.5992   -1.3662 C   0  0  0  0  0  0  0  0  0  0  0  0
   -2.6836    1.4881   -1.6757 C   0  0  0  0  0  0  0  0  0  0  0  0
   -0.2471    1.7224   -1.4853 C   0  0  0  0  0  0  0  0  0  0  0  0
    0.0972   -0.3993    0.3943 C   0  0  0  0  0  0  0  0  0  0  0  0
    0.9003   -0.9685   -0.8645 C   0  0  2  0  0  0  0  0  0  0  0  0
    2.2236   -0.4378   -0.9734 O   0  0  0  0  0  0  0  0  0  0  0  0
    3.2971   -1.2627   -0.8386 C   0  0  0  0  0  0  0  0  0  0  0  0
    3.0874   -2.4581   -0.6928 O   0  0  0  0  0  0  0  0  0  0  0  0
    4.6455   -0.5842   -0.9564 C   0  0  1  0  0  0  0  0  0  0  0  0
    4.9338    0.2525    0.3132 C   0  0  2  0  0  0  0  0  0  0  0  0
    4.1242    1.5353    0.4024 C   0  0  0  0  0  0  0  0  0  0  0  0
    4.3908    2.6055   -0.4586 C   0  0  0  0  0  0  0  0  0  0  0  0
    3.6399    3.7674   -0.3925 C   0  0  0  0  0  0  0  0  0  0  0  0
    2.6031    3.8514    0.5400 C   0  0  0  0  0  0  0  0  0  0  0  0
    2.3054    2.7857    1.4113 C   0  0  0  0  0  0  0  0  0  0  0  0
    3.0717    1.6272    1.3362 C   0  0  0  0  0  0  0  0  0  0  0  0
    6.3692    0.5890    0.3961 N   0  0  0  0  0  0  0  0  0  0  0  0
    7.2192   -0.1003    1.2508 C   0  0  0  0  0  0  0  0  0  0  0  0
    6.8789   -1.1040    1.8359 O   0  0  0  0  0  0  0  0  0  0  0  0
    8.6441    0.3968    1.3373 C   0  0  0  0  0  0  0  0  0  0  0  0
    9.4293   -0.1834    2.3565 C   0  0  0  0  0  0  0  0  0  0  0  0
   10.7891    0.1126    2.4591 C   0  0  0  0  0  0  0  0  0  0  0  0
   11.3710    0.9951    1.5540 C   0  0  0  0  0  0  0  0  0  0  0  0
   10.6038    1.6222    0.5581 C   0  0  0  0  0  0  0  0  0  0  0  0
    9.2328    1.3347    0.4695 C   0  0  0  0  0  0  0  0  0  0  0  0
    5.7571   -1.4841   -1.1039 O   0  0  0  0  0  0  0  0  0  0  0  0
   -1.5351   -1.8183   -0.2803 O   0  0  0  0  0  0  0  0  0  0  0  0
   -2.8721    1.1708    1.1399 O   0  0  0  0  0  0  0  0  0  0  0  0
   -2.5291    1.8239    2.2524 C   0  0  0  0  0  0  0  0  0  0  0  0
   -1.8783    1.2548    3.1298 O   0  0  0  0  0  0  0  0  0  0  0  0
   -2.8696    3.2445    2.1781 C   0  0  0  0  0  0  0  0  0  0  0  0
   -3.5563    3.8125    1.1024 C   0  0  0  0  0  0  0  0  0  0  0  0
   -3.8248    5.1937    1.1414 C   0  0  0  0  0  0  0  0  0  0  0  0
   -3.3995    5.9516    2.2473 C   0  0  0  0  0  0  0  0  0  0  0  0
   -2.6904    5.3682    3.2856 C   0  0  0  0  0  0  0  0  0  0  0  0
   -2.4089    4.0112    3.2466 C   0  0  0  0  0  0  0  0  0  0  0  0
   -5.0268   -3.2500    1.7758 C   0  0  0  0  0  0  0  0  0  0  0  0
   -6.3504   -2.7082    2.0824 O   0  0  0  0  0  0  0  0  0  0  0  0
   -3.7723   -1.5262    2.9326 O   0  0  0  0  0  0  0  0  0  0  0  0
   -2.6529   -2.1793    3.3086 C   0  0  0  0  0  0  0  0  0  0  0  0
   -2.0994   -2.9906    2.5267 O   0  0  0  0  0  0  0  0  0  0  0  0
   -2.1212   -1.7624    4.6459 C   0  0  0  0  0  0  0  0  0  0  0  0
   -6.2592   -3.1908   -1.3425 O   0  0  0  0  0  0  0  0  0  0  0  0
   -3.5151   -3.3359   -1.0667 C   0  0  0  0  0  0  0  0  0  0  0  0
   -2.1322   -2.2920   -3.7874 O   0  0  0  0  0  0  0  0  0  0  0  0
   -2.3651   -2.3350   -5.1100 C   0  0  0  0  0  0  0  0  0  0  0  0
   -2.6952   -1.3271   -5.7449 O   0  0  0  0  0  0  0  0  0  0  0  0
   -2.2028   -3.6708   -5.7255 C   0  0  0  0  0  0  0  0  0  0  0  0
    0.2165   -2.9395   -3.1278 H   0  0  0  0  0  0  0  0  0  0  0  0
    0.3323   -1.5982   -4.2565 H   0  0  0  0  0  0  0  0  0  0  0  0
    1.7916   -2.0170   -3.3024 H   0  0  0  0  0  0  0  0  0  0  0  0
   -2.4680   -0.3281   -3.9213 H   0  0  0  0  0  0  0  0  0  0  0  0
   -6.1345   -1.3295   -1.8947 H   0  0  0  0  0  0  0  0  0  0  0  0
   -7.5680   -1.5176    0.1200 H   0  0  0  0  0  0  0  0  0  0  0  0
   -6.5205   -0.1137   -0.1050 H   0  0  0  0  0  0  0  0  0  0  0  0
   -6.1260   -0.5510    2.1557 H   0  0  0  0  0  0  0  0  0  0  0  0
   -4.3891   -0.0817    0.2256 H   0  0  0  0  0  0  0  0  0  0  0  0
   -2.0891   -0.5259    1.8351 H   0  0  0  0  0  0  0  0  0  0  0  0
   -2.5749    2.5127   -1.2818 H   0  0  0  0  0  0  0  0  0  0  0  0
   -3.6124    1.1656   -1.2372 H   0  0  0  0  0  0  0  0  0  0  0  0
   -2.8776    1.6385   -2.7628 H   0  0  0  0  0  0  0  0  0  0  0  0
   -0.5885    2.6613   -1.9644 H   0  0  0  0  0  0  0  0  0  0  0  0
    0.1377    2.0270   -0.5173 H   0  0  0  0  0  0  0  0  0  0  0  0
    0.6004    1.4379   -2.1165 H   0  0  0  0  0  0  0  0  0  0  0  0
    0.4403    0.5602    0.7741 H   0  0  0  0  0  0  0  0  0  0  0  0
    0.2447   -1.0706    1.2589 H   0  0  0  0  0  0  0  0  0  0  0  0
    1.0015   -2.0307   -0.5856 H   0  0  0  0  0  0  0  0  0  0  0  0
    4.5938    0.0545   -1.8550 H   0  0  0  0  0  0  0  0  0  0  0  0
    4.7204   -0.3449    1.2133 H   0  0  0  0  0  0  0  0  0  0  0  0
    5.1955    2.5433   -1.1890 H   0  0  0  0  0  0  0  0  0  0  0  0
    3.8835    4.6003   -1.0500 H   0  0  0  0  0  0  0  0  0  0  0  0
    2.0204    4.7792    0.5957 H   0  0  0  0  0  0  0  0  0  0  0  0
    1.4802    2.8492    2.1341 H   0  0  0  0  0  0  0  0  0  0  0  0
    2.8163    0.7933    1.9982 H   0  0  0  0  0  0  0  0  0  0  0  0
    6.8156    0.7788   -0.5201 H   0  0  0  0  0  0  0  0  0  0  0  0
    8.9848   -0.8791    3.0614 H   0  0  0  0  0  0  0  0  0  0  0  0
   11.3754   -0.3777    3.2399 H   0  0  0  0  0  0  0  0  0  0  0  0
   12.4569    1.1928    1.6258 H   0  0  0  0  0  0  0  0  0  0  0  0
   11.0884    2.3134   -0.1429 H   0  0  0  0  0  0  0  0  0  0  0  0
    8.6764    1.8627   -0.3145 H   0  0  0  0  0  0  0  0  0  0  0  0
    5.8741   -1.7457   -2.0190 H   0  0  0  0  0  0  0  0  0  0  0  0
   -1.1639   -2.4257    0.4260 H   0  0  0  0  0  0  0  0  0  0  0  0
   -3.9491    3.2640    0.2319 H   0  0  0  0  0  0  0  0  0  0  0  0
   -4.3825    5.7095    0.3530 H   0  0  0  0  0  0  0  0  0  0  0  0
   -3.5998    7.0452    2.2994 H   0  0  0  0  0  0  0  0  0  0  0  0
   -2.3591    5.9265    4.1513 H   0  0  0  0  0  0  0  0  0  0  0  0
   -1.8785    3.5079    4.0468 H   0  0  0  0  0  0  0  0  0  0  0  0
   -5.1777   -3.8965    0.9515 H   0  0  0  0  0  0  0  0  0  0  0  0
   -4.7555   -3.9705    2.6165 H   0  0  0  0  0  0  0  0  0  0  0  0
   -1.7865   -2.6384    5.2356 H   0  0  0  0  0  0  0  0  0  0  0  0
   -1.2940   -1.0559    4.4649 H   0  0  0  0  0  0  0  0  0  0  0  0
   -2.9455   -1.2428    5.1818 H   0  0  0  0  0  0  0  0  0  0  0  0
   -7.0492   -3.3260   -0.8660 H   0  0  0  0  0  0  0  0  0  0  0  0
   -2.7390   -3.5276   -1.8608 H   0  0  0  0  0  0  0  0  0  0  0  0
   -3.0930   -3.7017   -0.0948 H   0  0  0  0  0  0  0  0  0  0  0  0
   -4.2290   -4.1314   -1.3111 H   0  0  0  0  0  0  0  0  0  0  0  0
   -1.1842   -4.0339   -5.5790 H   0  0  0  0  0  0  0  0  0  0  0  0
   -2.9240   -4.3739   -5.2959 H   0  0  0  0  0  0  0  0  0  0  0  0
   -2.3777   -3.5847   -6.8068 H   0  0  0  0  0  0  0  0  0  0  0  0
  1  2  1  0
  2  3  2  0
  3  4  1  0
  4  5  1  0
  5  6  2  0
  5  7  1  0
  7  8  1  0
  8  9  1  0
  9 10  1  0
 10 11  1  0
 11 12  1  0
 12 13  1  0
 13 14  1  0
 14 15  1  0
 15 16  1  0
 15 17  1  0
 14 18  1  0
 18 19  1  0
 19 20  1  0
 20 21  1  0
 21 22  2  0
 21 23  1  0
 23 24  1  0
 24 25  1  0
 25 26  2  0
 26 27  1  0
 27 28  2  0
 28 29  1  0
 29 30  2  0
 24 31  1  0
 31 32  1  0
 32 33  2  0
 32 34  1  0
 34 35  2  0
 35 36  1  0
 36 37  2  0
 37 38  1  0
 38 39  2  0
 23 40  1  0
 14 41  1  6
 13 42  1  0
 42 43  1  0
 43 44  2  0
 43 45  1  0
 45 46  2  0
 46 47  1  0
 47 48  2  0
 48 49  1  0
 49 50  2  0
 11 51  1  0
 51 52  1  0
 11 53  1  1
 53 54  1  0
 54 55  2  0
 54 56  1  0
  8 57  1  0
  7 58  1  1
  4 59  1  0
 59 60  1  0
 60 61  2  0
 60 62  1  0
 19  2  1  0
 15  3  1  0
 12  7  1  0
 52 10  1  0
 30 25  1  0
 39 34  1  0
 50 45  1  0
  1 63  1  0
  1 64  1  0
  1 65  1  0
  4 66  1  6
  8 67  1  6
  9 68  1  0
  9 69  1  0
 10 70  1  1
 12 71  1  6
 13 72  1  1
 16 73  1  0
 16 74  1  0
 16 75  1  0
 17 76  1  0
 17 77  1  0
 17 78  1  0
 18 79  1  0
 18 80  1  0
 19 81  1  1
 23 82  1  6
 24 83  1  1
 26 84  1  0
 27 85  1  0
 28 86  1  0
 29 87  1  0
 30 88  1  0
 31 89  1  0
 35 90  1  0
 36 91  1  0
 37 92  1  0
 38 93  1  0
 39 94  1  0
 40 95  1  0
 41 96  1  0
 46 97  1  0
 47 98  1  0
 48 99  1  0
 49100  1  0
 50101  1  0
 51102  1  0
 51103  1  0
 56104  1  0
 56105  1  0
 56106  1  0
 57107  1  0
 58108  1  0
 58109  1  0
 58110  1  0
 62111  1  0
 62112  1  0
 62113  1  0
M  END
$$$$
