
     RDKit          3D

 74 80  0  0  0  0  0  0  0  0999 V2000
    7.6063    2.5362    1.0636 C   0  0  0  0  0  0  0  0  0  0  0  0
    6.8192    1.9580   -0.1020 C   0  0  2  0  0  0  0  0  0  0  0  0
    5.6601    2.7485   -0.3818 O   0  0  0  0  0  0  0  0  0  0  0  0
    4.5478    2.4682    0.4697 C   0  0  0  0  0  0  0  0  0  0  0  0
    4.2071    0.9745    0.4800 C   0  0  2  0  0  0  0  0  0  0  0  0
    5.2542    0.2244   -0.3332 C   0  0  1  0  0  0  0  0  0  0  0  0
    6.5462    0.5751    0.1598 O   0  0  0  0  0  0  0  0  0  0  0  0
    5.0004   -1.2691   -0.1685 C   0  0  1  0  0  0  0  0  0  0  0  0
    3.5731   -1.6077   -0.6062 C   0  0  2  0  0  0  0  0  0  0  0  0
    2.5445   -0.6656    0.0645 C   0  0  1  0  0  0  0  0  0  0  0  0
    2.9063    0.7195   -0.0502 O   0  0  0  0  0  0  0  0  0  0  0  0
    1.2811   -0.8581   -0.5809 O   0  0  0  0  0  0  0  0  0  0  0  0
    0.1873   -0.2921    0.1390 C   0  0  1  0  0  0  0  0  0  0  0  0
   -0.5470    0.6994   -0.7583 C   0  0  1  0  0  0  0  0  0  0  0  0
    0.2613    1.6440   -1.6108 C   0  0  0  0  0  0  0  0  0  0  0  0
   -0.6525    2.0358   -2.6462 O   0  0  0  0  0  0  0  0  0  0  0  0
   -1.5670    1.0318   -2.8384 C   0  0  0  0  0  0  0  0  0  0  0  0
   -2.3735    0.9987   -3.7495 O   0  0  0  0  0  0  0  0  0  0  0  0
   -1.3308   -0.0416   -1.8230 C   0  0  2  0  0  0  0  0  0  0  0  0
   -2.5206   -0.7749   -1.2083 C   0  0  1  0  0  0  0  0  0  0  0  0
   -1.9776   -1.7061   -0.1119 C   0  0  0  0  0  0  0  0  0  0  0  0
   -2.7621   -2.8153    0.2676 C   0  0  0  0  0  0  0  0  0  0  0  0
   -2.2917   -3.6391    1.2652 C   0  0  0  0  0  0  0  0  0  0  0  0
   -1.0933   -3.4009    1.8894 C   0  0  0  0  0  0  0  0  0  0  0  0
   -0.2949   -2.3274    1.5560 C   0  0  0  0  0  0  0  0  0  0  0  0
   -0.7269   -1.4520    0.5416 C   0  0  0  0  0  0  0  0  0  0  0  0
   -0.8081   -4.3351    2.8376 O   0  0  0  0  0  0  0  0  0  0  0  0
   -1.9588   -5.1974    2.7249 C   0  0  0  0  0  0  0  0  0  0  0  0
   -2.9154   -4.7483    1.7421 O   0  0  0  0  0  0  0  0  0  0  0  0
   -3.6630    0.1253   -0.7222 C   0  0  0  0  0  0  0  0  0  0  0  0
   -4.6235    0.5681   -1.6537 C   0  0  0  0  0  0  0  0  0  0  0  0
   -5.6733    1.4093   -1.2765 C   0  0  0  0  0  0  0  0  0  0  0  0
   -5.7968    1.7637    0.0689 C   0  0  0  0  0  0  0  0  0  0  0  0
   -4.8770    1.3210    1.0260 C   0  0  0  0  0  0  0  0  0  0  0  0
   -3.8047    0.5214    0.6229 C   0  0  0  0  0  0  0  0  0  0  0  0
   -5.1282    1.7390    2.3099 O   0  0  0  0  0  0  0  0  0  0  0  0
   -4.2903    1.2123    3.3293 C   0  0  0  0  0  0  0  0  0  0  0  0
   -6.8367    2.5666    0.4742 O   0  0  0  0  0  0  0  0  0  0  0  0
   -6.6285    1.8838   -2.1368 O   0  0  0  0  0  0  0  0  0  0  0  0
   -6.2631    1.9413   -3.5099 C   0  0  0  0  0  0  0  0  0  0  0  0
    3.3103   -2.9781   -0.2583 O   0  0  0  0  0  0  0  0  0  0  0  0
    5.9252   -2.0288   -0.9625 O   0  0  0  0  0  0  0  0  0  0  0  0
    7.8144    3.5997    0.9137 H   0  0  0  0  0  0  0  0  0  0  0  0
    7.0465    2.4355    1.9988 H   0  0  0  0  0  0  0  0  0  0  0  0
    8.5507    1.9971    1.1960 H   0  0  0  0  0  0  0  0  0  0  0  0
    7.4472    1.9990   -0.9997 H   0  0  0  0  0  0  0  0  0  0  0  0
    3.7002    3.0635    0.1154 H   0  0  0  0  0  0  0  0  0  0  0  0
    4.7862    2.8156    1.4807 H   0  0  0  0  0  0  0  0  0  0  0  0
    4.2158    0.6493    1.5301 H   0  0  0  0  0  0  0  0  0  0  0  0
    5.2004    0.4650   -1.4050 H   0  0  0  0  0  0  0  0  0  0  0  0
    5.1704   -1.5851    0.8691 H   0  0  0  0  0  0  0  0  0  0  0  0
    3.4846   -1.5381   -1.6975 H   0  0  0  0  0  0  0  0  0  0  0  0
    2.4531   -0.9321    1.1258 H   0  0  0  0  0  0  0  0  0  0  0  0
    0.5200    0.2367    1.0455 H   0  0  0  0  0  0  0  0  0  0  0  0
   -1.2262    1.3065   -0.1421 H   0  0  0  0  0  0  0  0  0  0  0  0
    1.1381    1.1931   -2.0855 H   0  0  0  0  0  0  0  0  0  0  0  0
    0.5746    2.5316   -1.0562 H   0  0  0  0  0  0  0  0  0  0  0  0
   -0.6836   -0.7762   -2.3247 H   0  0  0  0  0  0  0  0  0  0  0  0
   -2.9361   -1.4270   -1.9905 H   0  0  0  0  0  0  0  0  0  0  0  0
   -3.7171   -3.0205   -0.2066 H   0  0  0  0  0  0  0  0  0  0  0  0
    0.6556   -2.1896    2.0619 H   0  0  0  0  0  0  0  0  0  0  0  0
   -1.6174   -6.2018    2.4532 H   0  0  0  0  0  0  0  0  0  0  0  0
   -2.4539   -5.2438    3.7014 H   0  0  0  0  0  0  0  0  0  0  0  0
   -4.5400    0.2356   -2.6842 H   0  0  0  0  0  0  0  0  0  0  0  0
   -3.0750    0.1863    1.3549 H   0  0  0  0  0  0  0  0  0  0  0  0
   -3.2654    1.5851    3.2140 H   0  0  0  0  0  0  0  0  0  0  0  0
   -4.6707    1.5717    4.2898 H   0  0  0  0  0  0  0  0  0  0  0  0
   -4.3179    0.1179    3.3514 H   0  0  0  0  0  0  0  0  0  0  0  0
   -6.7326    2.6465    1.4402 H   0  0  0  0  0  0  0  0  0  0  0  0
   -6.2851    0.9427   -3.9571 H   0  0  0  0  0  0  0  0  0  0  0  0
   -5.2871    2.4162   -3.6508 H   0  0  0  0  0  0  0  0  0  0  0  0
   -7.0063    2.5525   -4.0280 H   0  0  0  0  0  0  0  0  0  0  0  0
    4.0188   -3.4923   -0.6942 H   0  0  0  0  0  0  0  0  0  0  0  0
    6.8127   -1.6688   -0.7630 H   0  0  0  0  0  0  0  0  0  0  0  0
  1  2  1  0
  2  3  1  0
  3  4  1  0
  4  5  1  0
  5  6  1  0
  6  7  1  0
  6  8  1  0
  8  9  1  0
  9 10  1  0
 10 11  1  0
 10 12  1  0
 12 13  1  0
 13 14  1  0
 14 15  1  0
 15 16  1  0
 16 17  1  0
 17 18  2  0
 17 19  1  0
 19 20  1  0
 20 21  1  0
 21 22  2  0
 22 23  1  0
 23 24  2  0
 24 25  1  0
 25 26  2  0
 24 27  1  0
 27 28  1  0
 28 29  1  0
 20 30  1  0
 30 31  2  0
 31 32  1  0
 32 33  2  0
 33 34  1  0
 34 35  2  0
 34 36  1  0
 36 37  1  0
 33 38  1  0
 32 39  1  0
 39 40  1  0
  9 41  1  0
  8 42  1  0
  7  2  1  0
 11  5  1  0
 26 13  1  0
 19 14  1  0
 26 21  1  0
 29 23  1  0
 35 30  1  0
  1 43  1  0
  1 44  1  0
  1 45  1  0
  2 46  1  6
  4 47  1  0
  4 48  1  0
  5 49  1  1
  6 50  1  6
  8 51  1  1
  9 52  1  6
 10 53  1  1
 13 54  1  1
 14 55  1  1
 15 56  1  0
 15 57  1  0
 19 58  1  6
 20 59  1  6
 22 60  1  0
 25 61  1  0
 28 62  1  0
 28 63  1  0
 31 64  1  0
 35 65  1  0
 37 66  1  0
 37 67  1  0
 37 68  1  0
 38 69  1  0
 40 70  1  0
 40 71  1  0
 40 72  1  0
 41 73  1  0
 42 74  1  0
M  END
$$$$
