
     RDKit          3D

 18 18  0  0  0  0  0  0  0  0999 V2000
    0.3119    1.3200   -0.2003 C   0  0  0  0  0  0  0  0  0  0  0  0
    1.0201    0.1074   -0.1630 C   0  0  0  0  0  0  0  0  0  0  0  0
    0.3407   -1.1051    0.0282 C   0  0  0  0  0  0  0  0  0  0  0  0
   -1.0414   -1.0881    0.1799 C   0  0  0  0  0  0  0  0  0  0  0  0
   -1.7473    0.1146    0.1432 C   0  0  0  0  0  0  0  0  0  0  0  0
   -1.0731    1.3174   -0.0464 C   0  0  0  0  0  0  0  0  0  0  0  0
   -1.7771    2.4870   -0.0801 O   0  0  0  0  0  0  0  0  0  0  0  0
   -3.1066    0.0912    0.2963 O   0  0  0  0  0  0  0  0  0  0  0  0
   -1.7576   -2.2394    0.3693 O   0  0  0  0  0  0  0  0  0  0  0  0
    2.4920    0.1587   -0.3312 C   0  0  0  0  0  0  0  0  0  0  0  0
    3.1536    1.1655   -0.5008 O   0  0  0  0  0  0  0  0  0  0  0  0
    3.0655   -1.0561   -0.2787 O   0  0  0  0  0  0  0  0  0  0  0  0
    0.8505    2.2525   -0.3491 H   0  0  0  0  0  0  0  0  0  0  0  0
    0.8893   -2.0412    0.0568 H   0  0  0  0  0  0  0  0  0  0  0  0
   -1.1686    3.2293   -0.2185 H   0  0  0  0  0  0  0  0  0  0  0  0
   -3.3317   -0.8517    0.4113 H   0  0  0  0  0  0  0  0  0  0  0  0
   -1.1408   -2.9920    0.3728 H   0  0  0  0  0  0  0  0  0  0  0  0
    4.0208   -0.8701   -0.4025 H   0  0  0  0  0  0  0  0  0  0  0  0
  1  2  2  0
  2  3  1  0
  3  4  2  0
  4  5  1  0
  5  6  2  0
  6  7  1  0
  5  8  1  0
  4  9  1  0
  2 10  1  0
 10 11  2  0
 10 12  1  0
  6  1  1  0
  1 13  1  0
  3 14  1  0
  7 15  1  0
  8 16  1  0
  9 17  1  0
 12 18  1  0
M  END
$$$$
