
     RDKit          3D

 12 11  0  0  0  0  0  0  0  0999 V2000
    1.2399   -0.1361    0.4156 C   0  0  0  0  0  0  0  0  0  0  0  0
    0.0824    0.2739   -0.4819 C   0  0  0  0  0  0  0  0  0  0  0  0
   -1.1483   -0.5895   -0.2501 C   0  0  0  0  0  0  0  0  0  0  0  0
   -0.2467    1.6365   -0.2296 O   0  0  0  0  0  0  0  0  0  0  0  0
    2.1042    0.5144    0.2439 H   0  0  0  0  0  0  0  0  0  0  0  0
    0.9742   -0.0329    1.4735 H   0  0  0  0  0  0  0  0  0  0  0  0
    1.5395   -1.1719    0.2294 H   0  0  0  0  0  0  0  0  0  0  0  0
    0.3888    0.1993   -1.5305 H   0  0  0  0  0  0  0  0  0  0  0  0
   -1.9718   -0.2593   -0.8923 H   0  0  0  0  0  0  0  0  0  0  0  0
   -0.9404   -1.6427   -0.4619 H   0  0  0  0  0  0  0  0  0  0  0  0
   -1.5016   -0.5029    0.7833 H   0  0  0  0  0  0  0  0  0  0  0  0
   -0.5201    1.7111    0.7007 H   0  0  0  0  0  0  0  0  0  0  0  0
  1  2  1  0
  2  3  1  0
  2  4  1  0
  1  5  1  0
  1  6  1  0
  1  7  1  0
  2  8  1  0
  3  9  1  0
  3 10  1  0
  3 11  1  0
  4 12  1  0
M  END
$$$$
