
     RDKit          3D

 31 31  0  0  0  0  0  0  0  0999 V2000
    2.7324   -1.0535    0.0213 C   0  0  0  0  0  0  0  0  0  0  0  0
    1.4957   -1.8799   -0.3036 C   0  0  0  0  0  0  0  0  0  0  0  0
    0.5042   -1.7071    0.6943 O   0  0  0  0  0  0  0  0  0  0  0  0
   -0.1089   -0.2196    0.8367 P   0  0  0  0  0  5  0  0  0  0  0  0
   -0.7775   -0.0312    2.1627 O   0  0  0  0  0  0  0  0  0  0  0  0
    1.1892    0.7533    0.6240 N   0  0  0  0  0  0  0  0  0  0  0  0
    2.4402    0.1040    0.9741 C   0  0  0  0  0  0  0  0  0  0  0  0
    3.5398    1.0200    0.8951 O   0  0  0  0  0  0  0  0  0  0  0  0
    3.2176    2.1353    1.7829 O   0  0  0  0  0  0  0  0  0  0  0  0
   -1.1147    0.0010   -0.4507 N   0  0  0  0  0  0  0  0  0  0  0  0
   -2.4315   -0.6699   -0.3756 C   0  0  0  0  0  0  0  0  0  0  0  0
   -2.4010   -2.2019   -0.2842 C   0  0  0  0  0  0  0  0  0  0  0  0
   -1.7012   -2.9376   -1.7477 Cl  0  0  0  0  0  0  0  0  0  0  0  0
   -1.2815    1.3753   -0.9626 C   0  0  0  0  0  0  0  0  0  0  0  0
   -1.9115    2.3628    0.0269 C   0  0  0  0  0  0  0  0  0  0  0  0
   -2.0162    3.9857   -0.7027 Cl  0  0  0  0  0  0  0  0  0  0  0  0
    3.1969   -0.7048   -0.9099 H   0  0  0  0  0  0  0  0  0  0  0  0
    3.4872   -1.6983    0.4900 H   0  0  0  0  0  0  0  0  0  0  0  0
    1.0861   -1.5855   -1.2758 H   0  0  0  0  0  0  0  0  0  0  0  0
    1.7487   -2.9427   -0.3680 H   0  0  0  0  0  0  0  0  0  0  0  0
    1.1250    1.5508    1.2486 H   0  0  0  0  0  0  0  0  0  0  0  0
    2.3977   -0.2687    2.0058 H   0  0  0  0  0  0  0  0  0  0  0  0
    3.2781    2.8285    1.0995 H   0  0  0  0  0  0  0  0  0  0  0  0
   -3.0327   -0.4128   -1.2577 H   0  0  0  0  0  0  0  0  0  0  0  0
   -2.9801   -0.2916    0.4955 H   0  0  0  0  0  0  0  0  0  0  0  0
   -3.4240   -2.5817   -0.1978 H   0  0  0  0  0  0  0  0  0  0  0  0
   -1.8466   -2.5576    0.5874 H   0  0  0  0  0  0  0  0  0  0  0  0
   -0.2991    1.7511   -1.2734 H   0  0  0  0  0  0  0  0  0  0  0  0
   -1.8695    1.3521   -1.8898 H   0  0  0  0  0  0  0  0  0  0  0  0
   -2.9272    2.0662    0.3019 H   0  0  0  0  0  0  0  0  0  0  0  0
   -1.3154    2.4586    0.9381 H   0  0  0  0  0  0  0  0  0  0  0  0
  1  2  1  0
  2  3  1  0
  3  4  1  0
  4  5  2  0
  4  6  1  0
  6  7  1  0
  7  8  1  0
  8  9  1  0
  4 10  1  0
 10 11  1  0
 11 12  1  0
 12 13  1  0
 10 14  1  0
 14 15  1  0
 15 16  1  0
  7  1  1  0
  1 17  1  0
  1 18  1  0
  2 19  1  0
  2 20  1  0
  6 21  1  0
  7 22  1  0
  9 23  1  0
 11 24  1  0
 11 25  1  0
 12 26  1  0
 12 27  1  0
 14 28  1  0
 14 29  1  0
 15 30  1  0
 15 31  1  0
M  END
$$$$
