
     RDKit          3D

 53 54  0  0  0  0  0  0  0  0999 V2000
    2.9064    0.1098   -1.4555 B   0  0  0  0  0  0  0  0  0  0  0  0
    2.1195    0.3247   -0.0817 C   0  0  2  0  0  0  0  0  0  0  0  0
    2.6511   -0.5573    0.9991 C   0  0  0  0  0  0  0  0  0  0  0  0
    4.1106   -0.3176    1.3040 C   0  0  0  0  0  0  0  0  0  0  0  0
    4.4087    1.0732    1.7549 C   0  0  0  0  0  0  0  0  0  0  0  0
    4.4729   -1.2619    2.4551 C   0  0  0  0  0  0  0  0  0  0  0  0
    0.7396   -0.0748   -0.3306 N   0  0  0  0  0  0  0  0  0  0  0  0
   -0.3496    0.8555   -0.1938 C   0  0  0  0  0  0  0  0  0  0  0  0
   -0.0862    2.0316    0.1480 O   0  0  0  0  0  0  0  0  0  0  0  0
   -1.7356    0.4613   -0.4418 C   0  0  2  0  0  0  0  0  0  0  0  0
   -2.5705    0.6493    0.8035 C   0  0  0  0  0  0  0  0  0  0  0  0
   -2.6220    2.0143    1.3122 C   0  0  0  0  0  0  0  0  0  0  0  0
   -3.6058    2.8655    0.7964 C   0  0  0  0  0  0  0  0  0  0  0  0
   -3.7325    4.1654    1.2263 C   0  0  0  0  0  0  0  0  0  0  0  0
   -2.8606    4.6275    2.1907 C   0  0  0  0  0  0  0  0  0  0  0  0
   -1.8753    3.8234    2.7277 C   0  0  0  0  0  0  0  0  0  0  0  0
   -1.7653    2.5183    2.2810 C   0  0  0  0  0  0  0  0  0  0  0  0
   -1.8044   -0.9499   -0.8712 N   0  0  0  0  0  0  0  0  0  0  0  0
   -2.3211   -1.2836   -2.1320 C   0  0  0  0  0  0  0  0  0  0  0  0
   -2.7188   -0.3495   -2.8743 O   0  0  0  0  0  0  0  0  0  0  0  0
   -2.4021   -2.6692   -2.5849 C   0  0  0  0  0  0  0  0  0  0  0  0
   -1.9781   -3.6676   -1.7940 N   0  0  0  0  0  0  0  0  0  0  0  0
   -2.0424   -4.9580   -2.1901 C   0  0  0  0  0  0  0  0  0  0  0  0
   -2.5509   -5.2929   -3.4319 C   0  0  0  0  0  0  0  0  0  0  0  0
   -2.9760   -4.2965   -4.2256 N   0  0  0  0  0  0  0  0  0  0  0  0
   -2.9063   -3.0023   -3.8164 C   0  0  0  0  0  0  0  0  0  0  0  0
    2.7466   -1.0805   -2.2477 O   0  0  0  0  0  0  0  0  0  0  0  0
    3.7868    1.1815   -1.9057 O   0  0  0  0  0  0  0  0  0  0  0  0
    2.1068    1.3863    0.2013 H   0  0  0  0  0  0  0  0  0  0  0  0
    2.5822   -1.6167    0.6344 H   0  0  0  0  0  0  0  0  0  0  0  0
    2.0159   -0.4929    1.8823 H   0  0  0  0  0  0  0  0  0  0  0  0
    4.7613   -0.5736    0.4557 H   0  0  0  0  0  0  0  0  0  0  0  0
    5.4538    1.3231    1.4553 H   0  0  0  0  0  0  0  0  0  0  0  0
    3.7694    1.8510    1.2877 H   0  0  0  0  0  0  0  0  0  0  0  0
    4.3915    1.1832    2.8655 H   0  0  0  0  0  0  0  0  0  0  0  0
    3.7530   -1.0550    3.2739 H   0  0  0  0  0  0  0  0  0  0  0  0
    4.4084   -2.3176    2.1293 H   0  0  0  0  0  0  0  0  0  0  0  0
    5.4847   -1.0040    2.8390 H   0  0  0  0  0  0  0  0  0  0  0  0
    0.4678   -1.0409   -0.6171 H   0  0  0  0  0  0  0  0  0  0  0  0
   -2.1377    1.1112   -1.2443 H   0  0  0  0  0  0  0  0  0  0  0  0
   -3.5922    0.2026    0.6441 H   0  0  0  0  0  0  0  0  0  0  0  0
   -2.1318    0.0079    1.6239 H   0  0  0  0  0  0  0  0  0  0  0  0
   -4.2752    2.4987    0.0511 H   0  0  0  0  0  0  0  0  0  0  0  0
   -4.5119    4.7992    0.8008 H   0  0  0  0  0  0  0  0  0  0  0  0
   -2.9489    5.6632    2.5442 H   0  0  0  0  0  0  0  0  0  0  0  0
   -1.2139    4.2198    3.4783 H   0  0  0  0  0  0  0  0  0  0  0  0
   -0.9963    1.8803    2.7043 H   0  0  0  0  0  0  0  0  0  0  0  0
   -1.4692   -1.7095   -0.2403 H   0  0  0  0  0  0  0  0  0  0  0  0
   -1.6872   -5.7232   -1.5140 H   0  0  0  0  0  0  0  0  0  0  0  0
   -2.6145   -6.3305   -3.7778 H   0  0  0  0  0  0  0  0  0  0  0  0
   -3.2469   -2.1795   -4.4477 H   0  0  0  0  0  0  0  0  0  0  0  0
    2.7255   -0.9244   -3.2187 H   0  0  0  0  0  0  0  0  0  0  0  0
    3.8670    1.9016   -1.2329 H   0  0  0  0  0  0  0  0  0  0  0  0
  1  2  1  0
  2  3  1  0
  3  4  1  0
  4  5  1  0
  4  6  1  0
  2  7  1  0
  7  8  1  0
  8  9  2  0
  8 10  1  0
 10 11  1  0
 11 12  1  0
 12 13  2  0
 13 14  1  0
 14 15  2  0
 15 16  1  0
 16 17  2  0
 10 18  1  0
 18 19  1  0
 19 20  2  0
 19 21  1  0
 21 22  2  0
 22 23  1  0
 23 24  2  0
 24 25  1  0
 25 26  2  0
  1 27  1  0
  1 28  1  0
 17 12  1  0
 26 21  1  0
  2 29  1  1
  3 30  1  0
  3 31  1  0
  4 32  1  0
  5 33  1  0
  5 34  1  0
  5 35  1  0
  6 36  1  0
  6 37  1  0
  6 38  1  0
  7 39  1  0
 10 40  1  6
 11 41  1  0
 11 42  1  0
 13 43  1  0
 14 44  1  0
 15 45  1  0
 16 46  1  0
 17 47  1  0
 18 48  1  0
 23 49  1  0
 24 50  1  0
 26 51  1  0
 27 52  1  0
 28 53  1  0
M  END
$$$$
