
     RDKit          3D

 28 28  0  0  0  0  0  0  0  0999 V2000
   -2.3441   -1.9521    0.2516 O   0  0  0  0  0  0  0  0  0  0  0  0
   -1.6304   -1.1195   -0.6633 C   0  0  0  0  0  0  0  0  0  0  0  0
   -1.0167    0.1166    0.0652 C   0  0  0  0  0  0  0  0  0  0  0  0
   -0.0752   -0.3057    1.2279 C   0  0  0  0  0  0  0  0  0  0  0  0
    1.0842   -1.2308    0.8553 C   0  0  0  0  0  0  0  0  0  0  0  0
    2.3352   -0.5416    0.3204 C   0  0  0  0  0  0  0  0  0  0  0  0
    2.1393    0.6543   -0.6034 C   0  0  0  0  0  0  0  0  0  0  0  0
    0.9727    0.5396   -1.5785 C   0  0  0  0  0  0  0  0  0  0  0  0
   -0.3434    1.0407   -0.9775 C   0  0  0  0  0  0  0  0  0  0  0  0
   -2.2039    0.8134    0.6681 N   0  0  0  0  0  0  0  0  0  0  0  0
   -1.7237    2.0017    1.3577 O   0  0  0  0  0  0  0  0  0  0  0  0
   -2.8033   -1.3276    0.8476 H   0  0  0  0  0  0  0  0  0  0  0  0
   -2.3416   -0.8022   -1.4358 H   0  0  0  0  0  0  0  0  0  0  0  0
   -0.8786   -1.7346   -1.1632 H   0  0  0  0  0  0  0  0  0  0  0  0
   -0.6735   -0.8334    1.9841 H   0  0  0  0  0  0  0  0  0  0  0  0
    0.3284    0.5785    1.7382 H   0  0  0  0  0  0  0  0  0  0  0  0
    0.7639   -2.0027    0.1499 H   0  0  0  0  0  0  0  0  0  0  0  0
    1.3823   -1.7828    1.7569 H   0  0  0  0  0  0  0  0  0  0  0  0
    2.9503   -0.2136    1.1685 H   0  0  0  0  0  0  0  0  0  0  0  0
    2.9373   -1.2973   -0.2007 H   0  0  0  0  0  0  0  0  0  0  0  0
    2.0369    1.5663   -0.0021 H   0  0  0  0  0  0  0  0  0  0  0  0
    3.0660    0.7839   -1.1772 H   0  0  0  0  0  0  0  0  0  0  0  0
    0.8817   -0.4759   -1.9767 H   0  0  0  0  0  0  0  0  0  0  0  0
    1.1977    1.1846   -2.4380 H   0  0  0  0  0  0  0  0  0  0  0  0
   -0.1585    2.0330   -0.5458 H   0  0  0  0  0  0  0  0  0  0  0  0
   -1.0461    1.2120   -1.8049 H   0  0  0  0  0  0  0  0  0  0  0  0
   -2.7645    1.2238   -0.0860 H   0  0  0  0  0  0  0  0  0  0  0  0
   -2.0724    1.8712    2.2617 H   0  0  0  0  0  0  0  0  0  0  0  0
  1  2  1  0
  2  3  1  0
  3  4  1  0
  4  5  1  0
  5  6  1  0
  6  7  1  0
  7  8  1  0
  8  9  1  0
  3 10  1  0
 10 11  1  0
  9  3  1  0
  1 12  1  0
  2 13  1  0
  2 14  1  0
  4 15  1  0
  4 16  1  0
  5 17  1  0
  5 18  1  0
  6 19  1  0
  6 20  1  0
  7 21  1  0
  7 22  1  0
  8 23  1  0
  8 24  1  0
  9 25  1  0
  9 26  1  0
 10 27  1  0
 11 28  1  0
M  END
$$$$
