
     RDKit          3D

 28 28  0  0  0  0  0  0  0  0999 V2000
    2.1027   -2.0617   -1.2006 O   0  0  0  0  0  0  0  0  0  0  0  0
    1.4001   -1.6791   -0.0128 C   0  0  0  0  0  0  0  0  0  0  0  0
    1.0097   -0.1685   -0.0232 C   0  0  0  0  0  0  0  0  0  0  0  0
    0.1069    0.1193   -1.2621 C   0  0  0  0  0  0  0  0  0  0  0  0
   -0.9490    1.2121   -1.0753 C   0  0  0  0  0  0  0  0  0  0  0  0
   -2.1515    0.8280   -0.2007 C   0  0  0  0  0  0  0  0  0  0  0  0
   -2.0317   -0.4655    0.6010 C   0  0  0  0  0  0  0  0  0  0  0  0
   -0.9562   -0.4615    1.6826 C   0  0  0  0  0  0  0  0  0  0  0  0
    0.3667    0.2190    1.3308 C   0  0  0  0  0  0  0  0  0  0  0  0
    2.3028    0.5692   -0.1276 N   0  0  0  0  0  0  0  0  0  0  0  0
    2.0268    1.9784   -0.3267 O   0  0  0  0  0  0  0  0  0  0  0  0
    1.4767   -2.0142   -1.9419 H   0  0  0  0  0  0  0  0  0  0  0  0
    2.0527   -1.9067    0.8381 H   0  0  0  0  0  0  0  0  0  0  0  0
    0.5173   -2.3217    0.0718 H   0  0  0  0  0  0  0  0  0  0  0  0
   -0.3961   -0.7966   -1.5964 H   0  0  0  0  0  0  0  0  0  0  0  0
    0.7395    0.4006   -2.1158 H   0  0  0  0  0  0  0  0  0  0  0  0
   -1.3318    1.4916   -2.0657 H   0  0  0  0  0  0  0  0  0  0  0  0
   -0.4915    2.1266   -0.6822 H   0  0  0  0  0  0  0  0  0  0  0  0
   -2.3820    1.6604    0.4758 H   0  0  0  0  0  0  0  0  0  0  0  0
   -3.0273    0.7311   -0.8558 H   0  0  0  0  0  0  0  0  0  0  0  0
   -2.9968   -0.6654    1.0844 H   0  0  0  0  0  0  0  0  0  0  0  0
   -1.8744   -1.3134   -0.0750 H   0  0  0  0  0  0  0  0  0  0  0  0
   -0.7671   -1.4971    1.9908 H   0  0  0  0  0  0  0  0  0  0  0  0
   -1.3600    0.0399    2.5720 H   0  0  0  0  0  0  0  0  0  0  0  0
    0.2124    1.3049    1.3820 H   0  0  0  0  0  0  0  0  0  0  0  0
    1.0739   -0.0005    2.1437 H   0  0  0  0  0  0  0  0  0  0  0  0
    2.7699    0.2830   -0.9960 H   0  0  0  0  0  0  0  0  0  0  0  0
    2.5572    2.3875    0.3849 H   0  0  0  0  0  0  0  0  0  0  0  0
  1  2  1  0
  2  3  1  0
  3  4  1  0
  4  5  1  0
  5  6  1  0
  6  7  1  0
  7  8  1  0
  8  9  1  0
  3 10  1  0
 10 11  1  0
  9  3  1  0
  1 12  1  0
  2 13  1  0
  2 14  1  0
  4 15  1  0
  4 16  1  0
  5 17  1  0
  5 18  1  0
  6 19  1  0
  6 20  1  0
  7 21  1  0
  7 22  1  0
  8 23  1  0
  8 24  1  0
  9 25  1  0
  9 26  1  0
 10 27  1  0
 11 28  1  0
M  END
$$$$
