
     RDKit          3D

 19 18  0  0  0  0  0  0  0  0999 V2000
   -0.6988    1.6496    0.4252 C   0  0  0  0  0  0  0  0  0  0  0  0
    0.0434    0.3842    0.3396 N   0  0  0  0  0  0  0  0  0  0  0  0
    1.2467    0.5857   -0.5038 C   0  0  0  0  0  0  0  0  0  0  0  0
    2.3025   -0.5136   -0.3334 C   0  0  0  0  0  0  0  0  0  0  0  0
    3.7524   -0.1374   -1.3034 Cl  0  0  0  0  0  0  0  0  0  0  0  0
   -0.8147   -0.6967   -0.2004 C   0  0  0  0  0  0  0  0  0  0  0  0
   -1.9356   -1.1271    0.7551 C   0  0  0  0  0  0  0  0  0  0  0  0
   -2.8330   -2.5116    0.0761 Cl  0  0  0  0  0  0  0  0  0  0  0  0
   -1.0694    1.9761   -0.5528 H   0  0  0  0  0  0  0  0  0  0  0  0
   -1.5465    1.5693    1.1117 H   0  0  0  0  0  0  0  0  0  0  0  0
   -0.0610    2.4420    0.8331 H   0  0  0  0  0  0  0  0  0  0  0  0
    1.7247    1.5321   -0.2163 H   0  0  0  0  0  0  0  0  0  0  0  0
    0.9629    0.6856   -1.5602 H   0  0  0  0  0  0  0  0  0  0  0  0
    2.6175   -0.5956    0.7116 H   0  0  0  0  0  0  0  0  0  0  0  0
    1.9436   -1.4896   -0.6684 H   0  0  0  0  0  0  0  0  0  0  0  0
   -1.2401   -0.3984   -1.1679 H   0  0  0  0  0  0  0  0  0  0  0  0
   -0.2009   -1.5847   -0.3885 H   0  0  0  0  0  0  0  0  0  0  0  0
   -1.5295   -1.4403    1.7219 H   0  0  0  0  0  0  0  0  0  0  0  0
   -2.6642   -0.3297    0.9208 H   0  0  0  0  0  0  0  0  0  0  0  0
  1  2  1  0
  2  3  1  0
  3  4  1  0
  4  5  1  0
  2  6  1  0
  6  7  1  0
  7  8  1  0
  1  9  1  0
  1 10  1  0
  1 11  1  0
  3 12  1  0
  3 13  1  0
  4 14  1  0
  4 15  1  0
  6 16  1  0
  6 17  1  0
  7 18  1  0
  7 19  1  0
M  END
$$$$
