
     RDKit          3D

 20 19  0  0  0  0  0  0  0  0999 V2000
   -1.5385    1.2788   -0.2523 C   0  0  0  0  0  0  0  0  0  0  0  0
   -1.2810   -0.1398   -0.0693 N   0  0  0  0  0  0  0  0  0  0  0  0
   -2.4544   -1.0015   -0.0870 C   0  0  0  0  0  0  0  0  0  0  0  0
   -0.1830   -0.5453    0.6460 C   0  0  0  0  0  0  0  0  0  0  0  0
   -0.0561   -1.7335    1.1343 N   0  0  0  0  0  0  0  0  0  0  0  0
    0.8718    0.2743    0.9041 N   0  0  0  0  0  0  0  0  0  0  0  0
    1.8407    0.2870    0.0560 C   0  0  0  0  0  0  0  0  0  0  0  0
    1.9965   -0.4153   -1.0934 N   0  0  0  0  0  0  0  0  0  0  0  0
    2.9164    1.0827    0.2539 N   0  0  0  0  0  0  0  0  0  0  0  0
   -2.3163    1.4400   -1.0063 H   0  0  0  0  0  0  0  0  0  0  0  0
   -0.6474    1.8120   -0.6035 H   0  0  0  0  0  0  0  0  0  0  0  0
   -1.8761    1.7257    0.6876 H   0  0  0  0  0  0  0  0  0  0  0  0
   -2.9026   -1.0668    0.9122 H   0  0  0  0  0  0  0  0  0  0  0  0
   -3.2113   -0.6309   -0.7898 H   0  0  0  0  0  0  0  0  0  0  0  0
   -2.1854   -2.0102   -0.4165 H   0  0  0  0  0  0  0  0  0  0  0  0
    0.8380   -1.7052    1.6374 H   0  0  0  0  0  0  0  0  0  0  0  0
    2.9387   -0.7901   -1.1756 H   0  0  0  0  0  0  0  0  0  0  0  0
    1.3191   -1.1688   -1.1771 H   0  0  0  0  0  0  0  0  0  0  0  0
    2.7525    1.7271    1.0230 H   0  0  0  0  0  0  0  0  0  0  0  0
    3.1784    1.5802   -0.5839 H   0  0  0  0  0  0  0  0  0  0  0  0
  1  2  1  0
  2  3  1  0
  2  4  1  0
  4  5  2  3
  4  6  1  0
  6  7  2  3
  7  8  1  0
  7  9  1  0
  1 10  1  0
  1 11  1  0
  1 12  1  0
  3 13  1  0
  3 14  1  0
  3 15  1  0
  5 16  1  0
  8 17  1  0
  8 18  1  0
  9 19  1  0
  9 20  1  0
M  END
$$$$
