
     RDKit          3D

 80 85  0  0  0  0  0  0  0  0999 V2000
   -1.9622   -2.4289   -1.7369 C   0  0  0  0  0  0  0  0  0  0  0  0
   -2.9650   -2.2563   -0.7357 O   0  0  0  0  0  0  0  0  0  0  0  0
   -2.9568   -0.9693   -0.2572 C   0  0  0  0  0  0  0  0  0  0  0  0
   -1.9002   -0.5354    0.5407 C   0  0  0  0  0  0  0  0  0  0  0  0
   -1.8734    0.7846    1.0295 C   0  0  0  0  0  0  0  0  0  0  0  0
   -0.8183    1.3136    1.7992 C   0  0  0  0  0  0  0  0  0  0  0  0
   -0.8753    2.6200    2.2762 C   0  0  0  0  0  0  0  0  0  0  0  0
   -1.9754    3.3737    1.9338 C   0  0  0  0  0  0  0  0  0  0  0  0
   -2.9963    2.9156    1.1801 N   0  0  0  0  0  0  0  0  0  0  0  0
   -2.9490    1.6456    0.7391 C   0  0  0  0  0  0  0  0  0  0  0  0
   -4.0107    1.1751   -0.0264 C   0  0  0  0  0  0  0  0  0  0  0  0
   -4.0347   -0.1230   -0.5412 C   0  0  0  0  0  0  0  0  0  0  0  0
   -5.0271   -0.6733   -1.3033 O   0  0  0  0  0  0  0  0  0  0  0  0
   -6.1247    0.1122   -1.7524 C   0  0  0  0  0  0  0  0  0  0  0  0
   -7.4221   -0.3592   -1.0946 C   0  0  0  0  0  0  0  0  0  0  0  0
   -7.4246   -0.1260    0.4234 C   0  0  0  0  0  0  0  0  0  0  0  0
   -8.6557   -0.4913    1.1341 N   0  0  0  0  0  0  0  0  0  0  0  0
   -9.0436   -1.9067    1.0081 C   0  0  0  0  0  0  0  0  0  0  0  0
  -10.2619   -2.1209    0.0951 C   0  0  0  0  0  0  0  0  0  0  0  0
  -11.4268   -1.3912    0.5044 O   0  0  0  0  0  0  0  0  0  0  0  0
  -11.1228   -0.2257    1.2845 C   0  0  0  0  0  0  0  0  0  0  0  0
   -9.7874    0.4162    0.8788 C   0  0  0  0  0  0  0  0  0  0  0  0
    0.2302    0.4973    2.1740 O   0  0  0  0  0  0  0  0  0  0  0  0
    1.4566    0.8413    1.6549 C   0  0  0  0  0  0  0  0  0  0  0  0
    1.8023    0.5209    0.3446 C   0  0  0  0  0  0  0  0  0  0  0  0
    3.0798    0.7930   -0.1425 C   0  0  0  0  0  0  0  0  0  0  0  0
    4.0338    1.3896    0.6838 C   0  0  0  0  0  0  0  0  0  0  0  0
    3.6834    1.7168    2.0027 C   0  0  0  0  0  0  0  0  0  0  0  0
    2.4061    1.4228    2.4947 C   0  0  0  0  0  0  0  0  0  0  0  0
    5.3526    1.6747    0.2758 N   0  0  0  0  0  0  0  0  0  0  0  0
    5.9685    1.2433   -0.8797 C   0  0  0  0  0  0  0  0  0  0  0  0
    5.5071    0.5275   -1.7579 O   0  0  0  0  0  0  0  0  0  0  0  0
    7.3931    1.6912   -1.0042 C   0  0  0  0  0  0  0  0  0  0  0  0
    7.6652    3.1935   -1.1031 C   0  0  0  0  0  0  0  0  0  0  0  0
    7.8127    2.3426   -2.3235 C   0  0  0  0  0  0  0  0  0  0  0  0
    8.4127    0.8158   -0.3347 C   0  0  0  0  0  0  0  0  0  0  0  0
    9.0524    1.2687    0.6054 O   0  0  0  0  0  0  0  0  0  0  0  0
    8.4999   -0.4387   -0.8969 N   0  0  0  0  0  0  0  0  0  0  0  0
    9.3383   -1.5001   -0.5014 C   0  0  0  0  0  0  0  0  0  0  0  0
    9.2074   -2.7100   -1.2008 C   0  0  0  0  0  0  0  0  0  0  0  0
    9.9932   -3.8157   -0.8657 C   0  0  0  0  0  0  0  0  0  0  0  0
   10.9174   -3.7079    0.1635 C   0  0  0  0  0  0  0  0  0  0  0  0
   11.0626   -2.5183    0.8666 C   0  0  0  0  0  0  0  0  0  0  0  0
   10.2718   -1.4141    0.5369 C   0  0  0  0  0  0  0  0  0  0  0  0
   11.6690   -4.7661    0.4897 F   0  0  0  0  0  0  0  0  0  0  0  0
    0.9236   -0.0871   -0.4663 F   0  0  0  0  0  0  0  0  0  0  0  0
   -2.2517   -3.2822   -2.3604 H   0  0  0  0  0  0  0  0  0  0  0  0
   -1.0031   -2.6649   -1.2674 H   0  0  0  0  0  0  0  0  0  0  0  0
   -1.8627   -1.5523   -2.3903 H   0  0  0  0  0  0  0  0  0  0  0  0
   -1.0912   -1.2221    0.7747 H   0  0  0  0  0  0  0  0  0  0  0  0
   -0.0993    3.0346    2.9068 H   0  0  0  0  0  0  0  0  0  0  0  0
   -2.0816    4.3997    2.2781 H   0  0  0  0  0  0  0  0  0  0  0  0
   -4.8225    1.8739   -0.1921 H   0  0  0  0  0  0  0  0  0  0  0  0
   -6.2046   -0.0688   -2.8314 H   0  0  0  0  0  0  0  0  0  0  0  0
   -5.9978    1.1933   -1.6532 H   0  0  0  0  0  0  0  0  0  0  0  0
   -8.2575    0.1711   -1.5687 H   0  0  0  0  0  0  0  0  0  0  0  0
   -7.5484   -1.4281   -1.3026 H   0  0  0  0  0  0  0  0  0  0  0  0
   -6.6021   -0.6922    0.8754 H   0  0  0  0  0  0  0  0  0  0  0  0
   -7.2044    0.9297    0.6309 H   0  0  0  0  0  0  0  0  0  0  0  0
   -9.3104   -2.2563    2.0146 H   0  0  0  0  0  0  0  0  0  0  0  0
   -8.2058   -2.5326    0.6826 H   0  0  0  0  0  0  0  0  0  0  0  0
  -10.0322   -1.8268   -0.9344 H   0  0  0  0  0  0  0  0  0  0  0  0
  -10.5316   -3.1818    0.0721 H   0  0  0  0  0  0  0  0  0  0  0  0
  -11.9445    0.4824    1.1428 H   0  0  0  0  0  0  0  0  0  0  0  0
  -11.1202   -0.5090    2.3428 H   0  0  0  0  0  0  0  0  0  0  0  0
   -9.6383    1.3386    1.4478 H   0  0  0  0  0  0  0  0  0  0  0  0
   -9.8471    0.6807   -0.1825 H   0  0  0  0  0  0  0  0  0  0  0  0
    3.2928    0.5190   -1.1699 H   0  0  0  0  0  0  0  0  0  0  0  0
    4.4043    2.1736    2.6761 H   0  0  0  0  0  0  0  0  0  0  0  0
    2.1561    1.6427    3.5305 H   0  0  0  0  0  0  0  0  0  0  0  0
    5.9506    2.1370    0.9545 H   0  0  0  0  0  0  0  0  0  0  0  0
    8.5652    3.5829   -0.6377 H   0  0  0  0  0  0  0  0  0  0  0  0
    6.8264    3.8806   -1.0706 H   0  0  0  0  0  0  0  0  0  0  0  0
    7.0681    2.4386   -3.1064 H   0  0  0  0  0  0  0  0  0  0  0  0
    8.8140    2.1562   -2.6972 H   0  0  0  0  0  0  0  0  0  0  0  0
    7.8689   -0.6261   -1.6712 H   0  0  0  0  0  0  0  0  0  0  0  0
    8.4917   -2.8101   -2.0109 H   0  0  0  0  0  0  0  0  0  0  0  0
    9.8891   -4.7547   -1.4015 H   0  0  0  0  0  0  0  0  0  0  0  0
   11.7905   -2.4548    1.6700 H   0  0  0  0  0  0  0  0  0  0  0  0
   10.4138   -0.5026    1.1064 H   0  0  0  0  0  0  0  0  0  0  0  0
  1  2  1  0
  2  3  1  0
  3  4  2  0
  4  5  1  0
  5  6  2  0
  6  7  1  0
  7  8  2  0
  8  9  1  0
  9 10  2  0
 10 11  1  0
 11 12  2  0
 12 13  1  0
 13 14  1  0
 14 15  1  0
 15 16  1  0
 16 17  1  0
 17 18  1  0
 18 19  1  0
 19 20  1  0
 20 21  1  0
 21 22  1  0
  6 23  1  0
 23 24  1  0
 24 25  2  0
 25 26  1  0
 26 27  2  0
 27 28  1  0
 28 29  2  0
 27 30  1  0
 30 31  1  0
 31 32  2  0
 31 33  1  0
 33 34  1  0
 34 35  1  0
 33 36  1  0
 36 37  2  0
 36 38  1  0
 38 39  1  0
 39 40  2  0
 40 41  1  0
 41 42  2  0
 42 43  1  0
 43 44  2  0
 42 45  1  0
 25 46  1  0
 12  3  1  0
 10  5  1  0
 22 17  1  0
 29 24  1  0
 35 33  1  0
 44 39  1  0
  1 47  1  0
  1 48  1  0
  1 49  1  0
  4 50  1  0
  7 51  1  0
  8 52  1  0
 11 53  1  0
 14 54  1  0
 14 55  1  0
 15 56  1  0
 15 57  1  0
 16 58  1  0
 16 59  1  0
 18 60  1  0
 18 61  1  0
 19 62  1  0
 19 63  1  0
 21 64  1  0
 21 65  1  0
 22 66  1  0
 22 67  1  0
 26 68  1  0
 28 69  1  0
 29 70  1  0
 30 71  1  0
 34 72  1  0
 34 73  1  0
 35 74  1  0
 35 75  1  0
 38 76  1  0
 40 77  1  0
 41 78  1  0
 43 79  1  0
 44 80  1  0
M  END
$$$$
