
     RDKit          3D

 69 72  0  0  0  0  0  0  0  0999 V2000
    0.3883   -4.4010   -1.1819 C   0  0  0  0  0  0  0  0  0  0  0  0
    1.5181   -3.7607   -0.3640 C   0  0  0  0  0  0  0  0  0  0  0  0
    2.4367   -3.0094   -1.2213 N   0  0  0  0  0  0  0  0  0  0  0  0
    3.5682   -2.4315   -0.4848 C   0  0  0  0  0  0  0  0  0  0  0  0
    3.1801   -1.2526    0.4304 C   0  0  0  0  0  0  0  0  0  0  0  0
    4.3272   -0.4274    1.0005 C   0  0  0  0  0  0  0  0  0  0  0  0
    5.6377   -0.9392    1.0475 C   0  0  0  0  0  0  0  0  0  0  0  0
    6.6947   -0.1886    1.5671 C   0  0  0  0  0  0  0  0  0  0  0  0
    6.4650    1.0883    2.0602 C   0  0  0  0  0  0  0  0  0  0  0  0
    5.1744    1.6097    2.0468 C   0  0  0  0  0  0  0  0  0  0  0  0
    4.0930    0.8627    1.5402 C   0  0  0  0  0  0  0  0  0  0  0  0
    2.7253    1.5050    1.5719 C   0  0  0  0  0  0  0  0  0  0  0  0
    2.4337    2.1664    0.3211 N   0  0  0  0  0  0  0  0  0  0  0  0
    1.3111    2.9637    0.2139 C   0  0  0  0  0  0  0  0  0  0  0  0
    0.6445    3.3111    1.1858 O   0  0  0  0  0  0  0  0  0  0  0  0
    0.9752    3.3808   -1.2230 C   0  0  0  0  0  0  0  0  0  0  0  0
   -0.4611    3.2757   -1.4359 N   0  0  0  0  0  0  0  0  0  0  0  0
   -1.3314    4.3422   -1.4581 C   0  0  0  0  0  0  0  0  0  0  0  0
   -2.6451    4.1508   -1.6446 C   0  0  0  0  0  0  0  0  0  0  0  0
   -3.2653    2.9362   -1.7907 N   0  0  0  0  0  0  0  0  0  0  0  0
   -2.5123    1.8683   -1.7215 C   0  0  0  0  0  0  0  0  0  0  0  0
   -0.9631    1.9814   -1.5693 C   0  0  0  0  0  0  0  0  0  0  0  0
   -0.2604    0.9761   -1.5659 O   0  0  0  0  0  0  0  0  0  0  0  0
   -3.1546    0.6432   -1.7852 N   0  0  0  0  0  0  0  0  0  0  0  0
   -2.7083   -0.5059   -0.9817 C   0  0  2  0  0  0  0  0  0  0  0  0
   -1.9928   -1.5352   -1.8970 C   0  0  0  0  0  0  0  0  0  0  0  0
   -1.1691   -2.4682   -1.1070 N   0  0  0  0  0  0  0  0  0  0  0  0
   -0.4830   -3.4234   -1.9821 C   0  0  0  0  0  0  0  0  0  0  0  0
   -3.9039   -1.1747   -0.2610 C   0  0  0  0  0  0  0  0  0  0  0  0
   -4.5949   -0.2728    0.7392 C   0  0  0  0  0  0  0  0  0  0  0  0
   -3.9241    0.1601    1.8915 C   0  0  0  0  0  0  0  0  0  0  0  0
   -4.5593    0.9989    2.8082 C   0  0  0  0  0  0  0  0  0  0  0  0
   -5.8726    1.4073    2.5873 C   0  0  0  0  0  0  0  0  0  0  0  0
   -6.5524    0.9760    1.4504 C   0  0  0  0  0  0  0  0  0  0  0  0
   -5.9185    0.1383    0.5311 C   0  0  0  0  0  0  0  0  0  0  0  0
   -0.7112    5.9338   -1.2614 Cl  0  0  0  0  0  0  0  0  0  0  0  0
    0.8206   -5.1288   -1.8809 H   0  0  0  0  0  0  0  0  0  0  0  0
   -0.2509   -4.9758   -0.4993 H   0  0  0  0  0  0  0  0  0  0  0  0
    1.0865   -3.1147    0.4069 H   0  0  0  0  0  0  0  0  0  0  0  0
    2.0637   -4.5607    0.1510 H   0  0  0  0  0  0  0  0  0  0  0  0
    2.8028   -3.6364   -1.9385 H   0  0  0  0  0  0  0  0  0  0  0  0
    4.0823   -3.2158    0.0838 H   0  0  0  0  0  0  0  0  0  0  0  0
    4.2810   -2.0696   -1.2363 H   0  0  0  0  0  0  0  0  0  0  0  0
    2.5350   -0.5886   -0.1571 H   0  0  0  0  0  0  0  0  0  0  0  0
    2.5911   -1.6243    1.2774 H   0  0  0  0  0  0  0  0  0  0  0  0
    5.8688   -1.9355    0.6798 H   0  0  0  0  0  0  0  0  0  0  0  0
    7.6987   -0.6056    1.5844 H   0  0  0  0  0  0  0  0  0  0  0  0
    7.2865    1.6766    2.4606 H   0  0  0  0  0  0  0  0  0  0  0  0
    5.0083    2.6113    2.4407 H   0  0  0  0  0  0  0  0  0  0  0  0
    1.9436    0.7621    1.7666 H   0  0  0  0  0  0  0  0  0  0  0  0
    2.6585    2.2359    2.3876 H   0  0  0  0  0  0  0  0  0  0  0  0
    2.7583    1.6985   -0.5157 H   0  0  0  0  0  0  0  0  0  0  0  0
    1.4804    2.7152   -1.9331 H   0  0  0  0  0  0  0  0  0  0  0  0
    1.3653    4.3854   -1.4004 H   0  0  0  0  0  0  0  0  0  0  0  0
   -3.3175    5.0052   -1.6675 H   0  0  0  0  0  0  0  0  0  0  0  0
   -4.1589    0.7970   -1.7393 H   0  0  0  0  0  0  0  0  0  0  0  0
   -2.0067   -0.1562   -0.2142 H   0  0  0  0  0  0  0  0  0  0  0  0
   -1.3585   -1.0153   -2.6245 H   0  0  0  0  0  0  0  0  0  0  0  0
   -2.7423   -2.0916   -2.4740 H   0  0  0  0  0  0  0  0  0  0  0  0
   -0.4470   -1.9042   -0.6481 H   0  0  0  0  0  0  0  0  0  0  0  0
    0.1323   -2.8953   -2.7201 H   0  0  0  0  0  0  0  0  0  0  0  0
   -1.2272   -4.0087   -2.5356 H   0  0  0  0  0  0  0  0  0  0  0  0
   -3.5711   -2.0721    0.2762 H   0  0  0  0  0  0  0  0  0  0  0  0
   -4.6333   -1.5206   -1.0057 H   0  0  0  0  0  0  0  0  0  0  0  0
   -2.9001   -0.1516    2.0845 H   0  0  0  0  0  0  0  0  0  0  0  0
   -4.0279    1.3341    3.6954 H   0  0  0  0  0  0  0  0  0  0  0  0
   -6.3659    2.0614    3.3010 H   0  0  0  0  0  0  0  0  0  0  0  0
   -7.5775    1.2922    1.2793 H   0  0  0  0  0  0  0  0  0  0  0  0
   -6.4686   -0.1889   -0.3477 H   0  0  0  0  0  0  0  0  0  0  0  0
  1  2  1  0
  2  3  1  0
  3  4  1  0
  4  5  1  0
  5  6  1  0
  6  7  2  0
  7  8  1  0
  8  9  2  0
  9 10  1  0
 10 11  2  0
 11 12  1  0
 12 13  1  0
 13 14  1  0
 14 15  2  0
 14 16  1  0
 16 17  1  0
 17 18  1  0
 18 19  2  0
 19 20  1  0
 20 21  2  0
 21 22  1  0
 22 23  2  0
 21 24  1  0
 24 25  1  0
 25 26  1  0
 26 27  1  0
 27 28  1  0
 25 29  1  0
 29 30  1  0
 30 31  2  0
 31 32  1  0
 32 33  2  0
 33 34  1  0
 34 35  2  0
 18 36  1  0
 28  1  1  0
 11  6  1  0
 22 17  1  0
 35 30  1  0
  1 37  1  0
  1 38  1  0
  2 39  1  0
  2 40  1  0
  3 41  1  0
  4 42  1  0
  4 43  1  0
  5 44  1  0
  5 45  1  0
  7 46  1  0
  8 47  1  0
  9 48  1  0
 10 49  1  0
 12 50  1  0
 12 51  1  0
 13 52  1  0
 16 53  1  0
 16 54  1  0
 19 55  1  0
 24 56  1  0
 25 57  1  1
 26 58  1  0
 26 59  1  0
 27 60  1  0
 28 61  1  0
 28 62  1  0
 29 63  1  0
 29 64  1  0
 31 65  1  0
 32 66  1  0
 33 67  1  0
 34 68  1  0
 35 69  1  0
M  END
$$$$
