
     RDKit          3D

 23 23  0  0  0  0  0  0  0  0999 V2000
    0.3275   -1.1717   -0.5986 C   0  0  0  0  0  0  0  0  0  0  0  0
    1.6577   -1.5385   -0.8394 C   0  0  0  0  0  0  0  0  0  0  0  0
    2.6779   -0.6542   -0.5284 C   0  0  0  0  0  0  0  0  0  0  0  0
    2.3831    0.5975   -0.0035 C   0  0  0  0  0  0  0  0  0  0  0  0
    1.0670    0.9644    0.2499 C   0  0  0  0  0  0  0  0  0  0  0  0
    0.0055    0.0860   -0.0546 C   0  0  0  0  0  0  0  0  0  0  0  0
   -1.4213    0.5280    0.2319 C   0  0  2  0  0  0  0  0  0  0  0  0
   -2.5532   -0.3889   -0.3203 C   0  0  0  0  0  0  0  0  0  0  0  0
   -3.8922    0.1980   -0.2030 N   0  0  0  0  0  0  0  0  0  0  0  0
   -1.5901    1.8535   -0.2861 O   0  0  0  0  0  0  0  0  0  0  0  0
    3.3832    1.4954    0.2360 O   0  0  0  0  0  0  0  0  0  0  0  0
    3.9718   -1.0495   -0.7177 O   0  0  0  0  0  0  0  0  0  0  0  0
   -0.4446   -1.8984   -0.8386 H   0  0  0  0  0  0  0  0  0  0  0  0
    1.8945   -2.5204   -1.2399 H   0  0  0  0  0  0  0  0  0  0  0  0
    0.8586    1.9491    0.6654 H   0  0  0  0  0  0  0  0  0  0  0  0
   -1.5330    0.5977    1.3247 H   0  0  0  0  0  0  0  0  0  0  0  0
   -2.3854   -0.5966   -1.3842 H   0  0  0  0  0  0  0  0  0  0  0  0
   -2.5317   -1.3425    0.2172 H   0  0  0  0  0  0  0  0  0  0  0  0
   -4.0126    0.6295    0.7143 H   0  0  0  0  0  0  0  0  0  0  0  0
   -4.6000   -0.5309   -0.2958 H   0  0  0  0  0  0  0  0  0  0  0  0
   -1.6378    1.7699   -1.2620 H   0  0  0  0  0  0  0  0  0  0  0  0
    3.8717    1.5698   -0.6070 H   0  0  0  0  0  0  0  0  0  0  0  0
    4.5034   -0.5471   -0.0749 H   0  0  0  0  0  0  0  0  0  0  0  0
  1  2  2  0
  2  3  1  0
  3  4  2  0
  4  5  1  0
  5  6  2  0
  6  7  1  0
  7  8  1  0
  8  9  1  0
  7 10  1  0
  4 11  1  0
  3 12  1  0
  6  1  1  0
  1 13  1  0
  2 14  1  0
  5 15  1  0
  7 16  1  1
  8 17  1  0
  8 18  1  0
  9 19  1  0
  9 20  1  0
 10 21  1  0
 11 22  1  0
 12 23  1  0
M  END
$$$$
