
     RDKit          3D

 32 34  0  0  0  0  0  0  0  0999 V2000
    0.0558   -1.5698   -0.2212 C   0  0  0  0  0  0  0  0  0  0  0  0
    0.4646   -0.3127    0.5306 C   0  0  2  0  0  0  0  0  0  0  0  0
   -0.2936    0.8290    0.0886 O   0  0  0  0  0  0  0  0  0  0  0  0
   -1.6475    0.6528    0.1034 C   0  0  0  0  0  0  0  0  0  0  0  0
   -2.4231    1.8057    0.0985 C   0  0  0  0  0  0  0  0  0  0  0  0
   -3.8096    1.6982    0.0815 C   0  0  0  0  0  0  0  0  0  0  0  0
   -4.4410    0.4572    0.0367 C   0  0  0  0  0  0  0  0  0  0  0  0
   -3.6606   -0.6959    0.0418 C   0  0  0  0  0  0  0  0  0  0  0  0
   -2.2627   -0.6007    0.0653 C   0  0  0  0  0  0  0  0  0  0  0  0
   -1.4094   -1.8014    0.0079 C   0  0  0  0  0  0  0  0  0  0  0  0
   -1.9141   -2.9185    0.1050 O   0  0  0  0  0  0  0  0  0  0  0  0
   -4.3227   -1.8927   -0.0220 O   0  0  0  0  0  0  0  0  0  0  0  0
   -4.5270    2.8628    0.0963 O   0  0  0  0  0  0  0  0  0  0  0  0
    1.9450   -0.0420    0.3264 C   0  0  0  0  0  0  0  0  0  0  0  0
    2.3944    0.6495   -0.8117 C   0  0  0  0  0  0  0  0  0  0  0  0
    3.7553    0.8872   -1.0049 C   0  0  0  0  0  0  0  0  0  0  0  0
    4.6725    0.4086   -0.0689 C   0  0  0  0  0  0  0  0  0  0  0  0
    4.2504   -0.2852    1.0656 C   0  0  0  0  0  0  0  0  0  0  0  0
    2.8892   -0.5011    1.2695 C   0  0  0  0  0  0  0  0  0  0  0  0
    5.9917    0.6531   -0.3061 O   0  0  0  0  0  0  0  0  0  0  0  0
    0.2110   -1.4883   -1.3022 H   0  0  0  0  0  0  0  0  0  0  0  0
    0.6073   -2.4375    0.1494 H   0  0  0  0  0  0  0  0  0  0  0  0
    0.2778   -0.4223    1.6075 H   0  0  0  0  0  0  0  0  0  0  0  0
   -1.9580    2.7871    0.1169 H   0  0  0  0  0  0  0  0  0  0  0  0
   -5.5220    0.3748    0.0139 H   0  0  0  0  0  0  0  0  0  0  0  0
   -3.6655   -2.6218    0.1108 H   0  0  0  0  0  0  0  0  0  0  0  0
   -5.4759    2.6418    0.0746 H   0  0  0  0  0  0  0  0  0  0  0  0
    1.6863    1.0284   -1.5474 H   0  0  0  0  0  0  0  0  0  0  0  0
    4.0965    1.4303   -1.8840 H   0  0  0  0  0  0  0  0  0  0  0  0
    4.9593   -0.6400    1.8094 H   0  0  0  0  0  0  0  0  0  0  0  0
    2.5650   -1.0466    2.1539 H   0  0  0  0  0  0  0  0  0  0  0  0
    6.5105    0.1100    0.3183 H   0  0  0  0  0  0  0  0  0  0  0  0
  1  2  1  0
  2  3  1  0
  3  4  1  0
  4  5  2  0
  5  6  1  0
  6  7  2  0
  7  8  1  0
  8  9  2  0
  9 10  1  0
 10 11  2  0
  8 12  1  0
  6 13  1  0
  2 14  1  0
 14 15  2  0
 15 16  1  0
 16 17  2  0
 17 18  1  0
 18 19  2  0
 17 20  1  0
 10  1  1  0
  9  4  1  0
 19 14  1  0
  1 21  1  0
  1 22  1  0
  2 23  1  1
  5 24  1  0
  7 25  1  0
 12 26  1  0
 13 27  1  0
 15 28  1  0
 16 29  1  0
 18 30  1  0
 19 31  1  0
 20 32  1  0
M  END
$$$$
