
     RDKit          3D

 25 25  0  0  0  0  0  0  0  0999 V2000
    2.7998    0.0863    0.6417 C   0  0  0  0  0  0  0  0  0  0  0  0
    1.2716    0.0418    0.7631 C   0  0  2  0  0  0  0  0  0  0  0  0
    0.6671   -1.0642   -0.1185 C   0  0  2  0  0  0  0  0  0  0  0  0
   -0.8664   -0.9639   -0.1405 C   0  0  1  0  0  0  0  0  0  0  0  0
   -1.2989    0.4626   -0.5076 C   0  0  2  0  0  0  0  0  0  0  0  0
   -0.6309    1.4400    0.4960 C   0  0  0  0  0  0  0  0  0  0  0  0
    0.7831    1.3405    0.3794 O   0  0  0  0  0  0  0  0  0  0  0  0
   -1.0290    2.7739    0.2084 O   0  0  0  0  0  0  0  0  0  0  0  0
   -2.7659    0.6438   -0.5712 N   0  0  0  0  0  0  0  0  0  0  0  0
   -1.3731   -1.9199   -1.0838 O   0  0  0  0  0  0  0  0  0  0  0  0
    1.0246   -2.3574    0.3823 O   0  0  0  0  0  0  0  0  0  0  0  0
    3.1802    0.5304   -0.6624 O   0  0  0  0  0  0  0  0  0  0  0  0
    3.2559   -0.8900    0.8290 H   0  0  0  0  0  0  0  0  0  0  0  0
    3.2147    0.8050    1.3564 H   0  0  0  0  0  0  0  0  0  0  0  0
    1.0241   -0.1416    1.8169 H   0  0  0  0  0  0  0  0  0  0  0  0
    1.0472   -0.9930   -1.1453 H   0  0  0  0  0  0  0  0  0  0  0  0
   -1.2659   -1.2533    0.8404 H   0  0  0  0  0  0  0  0  0  0  0  0
   -0.9285    0.6914   -1.5162 H   0  0  0  0  0  0  0  0  0  0  0  0
   -0.9363    1.2254    1.5273 H   0  0  0  0  0  0  0  0  0  0  0  0
   -1.7575    2.6984   -0.4366 H   0  0  0  0  0  0  0  0  0  0  0  0
   -3.2055    0.3155    0.2890 H   0  0  0  0  0  0  0  0  0  0  0  0
   -3.1452    0.0848   -1.3356 H   0  0  0  0  0  0  0  0  0  0  0  0
   -2.3415   -1.9276   -0.9945 H   0  0  0  0  0  0  0  0  0  0  0  0
    0.5866   -2.9938   -0.2175 H   0  0  0  0  0  0  0  0  0  0  0  0
    2.6898    1.3651   -0.8001 H   0  0  0  0  0  0  0  0  0  0  0  0
  1  2  1  0
  2  3  1  0
  3  4  1  0
  4  5  1  0
  5  6  1  0
  6  7  1  0
  6  8  1  0
  5  9  1  0
  4 10  1  0
  3 11  1  0
  1 12  1  0
  7  2  1  0
  1 13  1  0
  1 14  1  0
  2 15  1  1
  3 16  1  6
  4 17  1  1
  5 18  1  6
  6 19  1  0
  8 20  1  0
  9 21  1  0
  9 22  1  0
 10 23  1  0
 11 24  1  0
 12 25  1  0
M  END
$$$$
