
     RDKit          3D

 87 87  0  0  0  0  0  0  0  0999 V2000
   -4.0283   -2.4402    0.7904 C   0  0  0  0  0  0  0  0  0  0  0  0
   -2.6434   -2.1159    1.3350 C   0  0  0  0  0  0  0  0  0  0  0  0
   -1.6204   -1.6401    0.2740 C   0  0  2  0  0  0  0  0  0  0  0  0
   -0.2140   -1.7580    0.8832 C   0  0  0  0  0  0  0  0  0  0  0  0
   -1.8940   -0.1918   -0.2012 C   0  0  1  0  0  0  0  0  0  0  0  0
   -0.7746    0.3268   -1.1306 C   0  0  0  0  0  0  0  0  0  0  0  0
   -0.6580   -0.0681   -2.2891 O   0  0  0  0  0  0  0  0  0  0  0  0
    0.0649    1.2524   -0.5546 N   0  0  0  0  0  0  0  0  0  0  0  0
    1.0968    1.9393   -1.3203 C   0  0  0  0  0  0  0  0  0  0  0  0
    2.4341    2.0082   -0.5776 C   0  0  0  0  0  0  0  0  0  0  0  0
    3.3305    2.7811   -0.9119 O   0  0  0  0  0  0  0  0  0  0  0  0
    2.5774    1.0913    0.4395 N   0  0  0  0  0  0  0  0  0  0  0  0
    3.8427    0.8928    1.1423 C   0  0  1  0  0  0  0  0  0  0  0  0
    3.9136    1.7745    2.4120 C   0  0  0  0  0  0  0  0  0  0  0  0
    5.3115    1.7701    3.0333 C   0  0  0  0  0  0  0  0  0  0  0  0
    2.8706    1.4128    3.4758 C   0  0  0  0  0  0  0  0  0  0  0  0
    3.9594   -0.6211    1.4415 C   0  0  0  0  0  0  0  0  0  0  0  0
    2.9871   -1.2412    1.8880 O   0  0  0  0  0  0  0  0  0  0  0  0
    5.1610   -1.2492    1.2022 N   0  0  0  0  0  0  0  0  0  0  0  0
    5.3322   -2.6628    1.4917 C   0  0  0  0  0  0  0  0  0  0  0  0
    6.6496   -3.0480    0.8349 C   0  0  0  0  0  0  0  0  0  0  0  0
    7.4236   -1.7337    0.7885 C   0  0  0  0  0  0  0  0  0  0  0  0
    6.3279   -0.7051    0.5038 C   0  0  1  0  0  0  0  0  0  0  0  0
    6.0832   -0.5823   -1.0202 C   0  0  0  0  0  0  0  0  0  0  0  0
    5.1176   -1.0835   -1.5879 O   0  0  0  0  0  0  0  0  0  0  0  0
    7.0595    0.1317   -1.6887 N   0  0  0  0  0  0  0  0  0  0  0  0
    6.8944    0.4326   -3.0895 C   0  0  0  0  0  0  0  0  0  0  0  0
   -3.1094   -0.0998   -1.0036 N   0  0  0  0  0  0  0  0  0  0  0  0
   -3.8492    1.0704   -1.0159 C   0  0  0  0  0  0  0  0  0  0  0  0
   -3.5804    2.0254   -0.2907 O   0  0  0  0  0  0  0  0  0  0  0  0
   -4.9518    1.1021   -2.1005 C   0  0  2  0  0  0  0  0  0  0  0  0
   -6.1115    2.0472   -1.7385 C   0  0  0  0  0  0  0  0  0  0  0  0
   -6.8561    1.7851   -0.4083 C   0  0  0  0  0  0  0  0  0  0  0  0
   -7.6413    0.4742   -0.4011 C   0  0  0  0  0  0  0  0  0  0  0  0
   -7.8175    2.9484   -0.1314 C   0  0  0  0  0  0  0  0  0  0  0  0
   -5.3830   -0.2506   -2.4470 N   0  0  0  0  0  0  0  0  0  0  0  0
   -5.9743   -0.5435   -3.6533 C   0  0  0  0  0  0  0  0  0  0  0  0
   -6.1510    0.2795   -4.5425 O   0  0  0  0  0  0  0  0  0  0  0  0
   -6.3674   -1.9874   -3.8053 C   0  0  0  0  0  0  0  0  0  0  0  0
   -4.5692   -1.5405    0.4854 H   0  0  0  0  0  0  0  0  0  0  0  0
   -4.6290   -2.9212    1.5727 H   0  0  0  0  0  0  0  0  0  0  0  0
   -3.9697   -3.1284   -0.0621 H   0  0  0  0  0  0  0  0  0  0  0  0
   -2.2639   -3.0302    1.8150 H   0  0  0  0  0  0  0  0  0  0  0  0
   -2.7335   -1.3640    2.1334 H   0  0  0  0  0  0  0  0  0  0  0  0
   -1.6627   -2.3254   -0.5858 H   0  0  0  0  0  0  0  0  0  0  0  0
   -0.0728   -1.0315    1.6903 H   0  0  0  0  0  0  0  0  0  0  0  0
    0.5644   -1.5932    0.1307 H   0  0  0  0  0  0  0  0  0  0  0  0
   -0.0433   -2.7603    1.2926 H   0  0  0  0  0  0  0  0  0  0  0  0
   -1.9849    0.4693    0.6678 H   0  0  0  0  0  0  0  0  0  0  0  0
   -0.2059    1.6779    0.3256 H   0  0  0  0  0  0  0  0  0  0  0  0
    1.2607    1.4472   -2.2834 H   0  0  0  0  0  0  0  0  0  0  0  0
    0.7427    2.9618   -1.4896 H   0  0  0  0  0  0  0  0  0  0  0  0
    1.8856    0.3510    0.5144 H   0  0  0  0  0  0  0  0  0  0  0  0
    4.6342    1.2059    0.4575 H   0  0  0  0  0  0  0  0  0  0  0  0
    3.7040    2.8076    2.1027 H   0  0  0  0  0  0  0  0  0  0  0  0
    6.0558    2.1281    2.3133 H   0  0  0  0  0  0  0  0  0  0  0  0
    5.6045    0.7688    3.3691 H   0  0  0  0  0  0  0  0  0  0  0  0
    5.3517    2.4391    3.9003 H   0  0  0  0  0  0  0  0  0  0  0  0
    2.8747    2.1576    4.2787 H   0  0  0  0  0  0  0  0  0  0  0  0
    1.8594    1.3925    3.0560 H   0  0  0  0  0  0  0  0  0  0  0  0
    3.0755    0.4387    3.9308 H   0  0  0  0  0  0  0  0  0  0  0  0
    4.4872   -3.2457    1.1128 H   0  0  0  0  0  0  0  0  0  0  0  0
    5.3813   -2.7779    2.5808 H   0  0  0  0  0  0  0  0  0  0  0  0
    6.4670   -3.4080   -0.1838 H   0  0  0  0  0  0  0  0  0  0  0  0
    7.1738   -3.8365    1.3812 H   0  0  0  0  0  0  0  0  0  0  0  0
    7.8719   -1.5384    1.7703 H   0  0  0  0  0  0  0  0  0  0  0  0
    8.2233   -1.7554    0.0434 H   0  0  0  0  0  0  0  0  0  0  0  0
    6.5886    0.2790    0.9009 H   0  0  0  0  0  0  0  0  0  0  0  0
    7.6869    0.7189   -1.1518 H   0  0  0  0  0  0  0  0  0  0  0  0
    6.6262   -0.4735   -3.6354 H   0  0  0  0  0  0  0  0  0  0  0  0
    7.8365    0.8317   -3.4744 H   0  0  0  0  0  0  0  0  0  0  0  0
    6.1020    1.1780   -3.1993 H   0  0  0  0  0  0  0  0  0  0  0  0
   -3.0842   -0.5944   -1.8908 H   0  0  0  0  0  0  0  0  0  0  0  0
   -4.4669    1.5084   -2.9988 H   0  0  0  0  0  0  0  0  0  0  0  0
   -5.6998    3.0636   -1.6980 H   0  0  0  0  0  0  0  0  0  0  0  0
   -6.8425    2.0551   -2.5558 H   0  0  0  0  0  0  0  0  0  0  0  0
   -6.1356    1.7566    0.4164 H   0  0  0  0  0  0  0  0  0  0  0  0
   -6.9764   -0.3908   -0.3617 H   0  0  0  0  0  0  0  0  0  0  0  0
   -8.2859    0.4075    0.4815 H   0  0  0  0  0  0  0  0  0  0  0  0
   -8.2773    0.3848   -1.2863 H   0  0  0  0  0  0  0  0  0  0  0  0
   -7.2764    3.9009   -0.0847 H   0  0  0  0  0  0  0  0  0  0  0  0
   -8.3314    2.8121    0.8252 H   0  0  0  0  0  0  0  0  0  0  0  0
   -8.5809    3.0286   -0.9132 H   0  0  0  0  0  0  0  0  0  0  0  0
   -5.3694   -0.9525   -1.7170 H   0  0  0  0  0  0  0  0  0  0  0  0
   -5.5381   -2.5415   -4.2517 H   0  0  0  0  0  0  0  0  0  0  0  0
   -6.6248   -2.4291   -2.8371 H   0  0  0  0  0  0  0  0  0  0  0  0
   -7.2455   -2.0562   -4.4559 H   0  0  0  0  0  0  0  0  0  0  0  0
  1  2  1  0
  2  3  1  0
  3  4  1  0
  3  5  1  0
  5  6  1  0
  6  7  2  0
  6  8  1  0
  8  9  1  0
  9 10  1  0
 10 11  2  0
 10 12  1  0
 12 13  1  0
 13 14  1  0
 14 15  1  0
 14 16  1  0
 13 17  1  0
 17 18  2  0
 17 19  1  0
 19 20  1  0
 20 21  1  0
 21 22  1  0
 22 23  1  0
 23 24  1  0
 24 25  2  0
 24 26  1  0
 26 27  1  0
  5 28  1  0
 28 29  1  0
 29 30  2  0
 29 31  1  0
 31 32  1  0
 32 33  1  0
 33 34  1  0
 33 35  1  0
 31 36  1  0
 36 37  1  0
 37 38  2  0
 37 39  1  0
 23 19  1  0
  1 40  1  0
  1 41  1  0
  1 42  1  0
  2 43  1  0
  2 44  1  0
  3 45  1  6
  4 46  1  0
  4 47  1  0
  4 48  1  0
  5 49  1  1
  8 50  1  0
  9 51  1  0
  9 52  1  0
 12 53  1  0
 13 54  1  6
 14 55  1  0
 15 56  1  0
 15 57  1  0
 15 58  1  0
 16 59  1  0
 16 60  1  0
 16 61  1  0
 20 62  1  0
 20 63  1  0
 21 64  1  0
 21 65  1  0
 22 66  1  0
 22 67  1  0
 23 68  1  1
 26 69  1  0
 27 70  1  0
 27 71  1  0
 27 72  1  0
 28 73  1  0
 31 74  1  6
 32 75  1  0
 32 76  1  0
 33 77  1  0
 34 78  1  0
 34 79  1  0
 34 80  1  0
 35 81  1  0
 35 82  1  0
 35 83  1  0
 36 84  1  0
 39 85  1  0
 39 86  1  0
 39 87  1  0
M  END
$$$$
