
     RDKit          3D

135137  0  0  0  0  0  0  0  0999 V2000
   -3.8519    1.0197    2.1352 C   0  0  0  0  0  0  0  0  0  0  0  0
   -5.0849    0.2755    2.6198 C   0  0  0  0  0  0  0  0  0  0  0  0
   -6.3446    0.5092    1.7650 C   0  0  2  0  0  0  0  0  0  0  0  0
   -7.5440    0.0913    2.6672 C   0  0  0  0  0  0  0  0  0  0  0  0
   -6.4779   -0.2177    0.4047 C   0  0  1  0  0  0  0  0  0  0  0  0
   -5.7625    0.2150   -0.9051 C   0  0  0  0  0  0  0  0  0  0  0  0
   -5.9301   -0.4727   -1.9192 O   0  0  0  0  0  0  0  0  0  0  0  0
   -5.0058    1.3870   -0.9696 N   0  0  0  0  0  0  0  0  0  0  0  0
   -4.3625    1.7154   -2.2439 C   0  0  2  0  0  0  0  0  0  0  0  0
   -2.9120    2.2763   -2.2929 C   0  0  0  0  0  0  0  0  0  0  0  0
   -2.3920    2.5918   -3.3607 O   0  0  0  0  0  0  0  0  0  0  0  0
   -2.2091    2.3145   -1.1079 N   0  0  0  0  0  0  0  0  0  0  0  0
   -0.7523    2.5820   -1.1431 C   0  0  2  0  0  0  0  0  0  0  0  0
   -0.0772    1.3896   -0.4268 C   0  0  0  0  0  0  0  0  0  0  0  0
   -0.6006    0.8578    0.5546 O   0  0  0  0  0  0  0  0  0  0  0  0
    1.1750    1.0208   -0.9047 N   0  0  0  0  0  0  0  0  0  0  0  0
    1.8842   -0.1596   -0.3554 C   0  0  1  0  0  0  0  0  0  0  0  0
    1.5808   -1.4427   -1.1703 C   0  0  0  0  0  0  0  0  0  0  0  0
   -0.1705   -1.8147   -1.5341 S   0  0  0  0  0  0  0  0  0  0  0  0
   -0.8906   -2.5980    0.2213 S   0  0  0  0  0  0  0  0  0  0  0  0
   -0.7743   -4.4127   -0.0003 C   0  0  0  0  0  0  0  0  0  0  0  0
   -1.6971   -5.1155   -1.0538 C   0  0  1  0  0  0  0  0  0  0  0  0
   -3.1617   -5.2480   -0.5942 C   0  0  0  0  0  0  0  0  0  0  0  0
   -3.7378   -6.3340   -0.5443 O   0  0  0  0  0  0  0  0  0  0  0  0
   -3.7571   -4.0508   -0.2772 N   0  0  0  0  0  0  0  0  0  0  0  0
   -5.1740   -3.8281    0.0241 C   0  0  2  0  0  0  0  0  0  0  0  0
   -5.1866   -2.3110    0.4182 C   0  0  0  0  0  0  0  0  0  0  0  0
   -4.1394   -1.6953    0.5958 O   0  0  0  0  0  0  0  0  0  0  0  0
   -6.4335   -1.6862    0.4701 N   0  0  0  0  0  0  0  0  0  0  0  0
   -5.7364   -4.7150    1.1539 C   0  0  0  0  0  0  0  0  0  0  0  0
   -7.2421   -4.6422    1.3173 C   0  0  0  0  0  0  0  0  0  0  0  0
   -7.7985   -3.9678    2.4191 C   0  0  0  0  0  0  0  0  0  0  0  0
   -9.1825   -3.8671    2.5519 C   0  0  0  0  0  0  0  0  0  0  0  0
  -10.0224   -4.4468    1.6086 C   0  0  0  0  0  0  0  0  0  0  0  0
   -9.4811   -5.1299    0.5198 C   0  0  0  0  0  0  0  0  0  0  0  0
   -8.0908   -5.2291    0.3766 C   0  0  0  0  0  0  0  0  0  0  0  0
  -11.3630   -4.3149    1.7793 O   0  0  0  0  0  0  0  0  0  0  0  0
   -1.6633   -4.5222   -2.4040 N   0  0  0  0  0  0  0  0  0  0  0  0
    3.4190    0.0463   -0.4094 C   0  0  0  0  0  0  0  0  0  0  0  0
    4.1546   -0.8492   -0.8562 O   0  0  0  0  0  0  0  0  0  0  0  0
    4.0052    1.1654    0.1137 N   0  0  0  0  0  0  0  0  0  0  0  0
    3.4006    2.2739    0.8242 C   0  0  0  0  0  0  0  0  0  0  0  0
    4.3116    3.4395    0.4590 C   0  0  0  0  0  0  0  0  0  0  0  0
    5.7017    2.8071    0.4504 C   0  0  0  0  0  0  0  0  0  0  0  0
    5.4496    1.3547   -0.0129 C   0  0  1  0  0  0  0  0  0  0  0  0
    6.2876    0.4136    0.8864 C   0  0  0  0  0  0  0  0  0  0  0  0
    5.8768   -0.0279    1.9579 O   0  0  0  0  0  0  0  0  0  0  0  0
    7.5858    0.2118    0.4316 N   0  0  0  0  0  0  0  0  0  0  0  0
    8.5435   -0.6215    1.1441 C   0  0  1  0  0  0  0  0  0  0  0  0
    9.0561   -1.7968    0.2676 C   0  0  0  0  0  0  0  0  0  0  0  0
    9.6193   -1.4484   -1.1264 C   0  0  0  0  0  0  0  0  0  0  0  0
   10.8926   -0.6130   -1.0588 C   0  0  0  0  0  0  0  0  0  0  0  0
    9.9124   -2.7436   -1.8972 C   0  0  0  0  0  0  0  0  0  0  0  0
    9.6744    0.1598    1.8591 C   0  0  0  0  0  0  0  0  0  0  0  0
   10.5705   -0.3795    2.4987 O   0  0  0  0  0  0  0  0  0  0  0  0
    9.5828    1.5275    1.7315 N   0  0  0  0  0  0  0  0  0  0  0  0
   10.5247    2.4349    2.3579 C   0  0  0  0  0  0  0  0  0  0  0  0
   11.8709    2.5318    1.6645 C   0  0  0  0  0  0  0  0  0  0  0  0
   12.0584    2.2558    0.4814 O   0  0  0  0  0  0  0  0  0  0  0  0
   12.9150    2.9807    2.4411 N   0  0  0  0  0  0  0  0  0  0  0  0
   -0.3296    3.8182   -0.3672 C   0  0  0  0  0  0  0  0  0  0  0  0
   -0.8769    5.1091   -0.8933 C   0  0  0  0  0  0  0  0  0  0  0  0
   -1.4778    5.2691   -1.9386 O   0  0  0  0  0  0  0  0  0  0  0  0
   -0.5960    6.1964   -0.0978 N   0  0  0  0  0  0  0  0  0  0  0  0
   -5.2851    2.5761   -3.1437 C   0  0  0  0  0  0  0  0  0  0  0  0
   -5.5153    3.9922   -2.5825 C   0  0  0  0  0  0  0  0  0  0  0  0
   -6.1751    4.8998   -3.6093 C   0  0  0  0  0  0  0  0  0  0  0  0
   -6.4516    4.6777   -4.7663 O   0  0  0  0  0  0  0  0  0  0  0  0
   -6.4790    6.1394   -3.0872 N   0  0  0  0  0  0  0  0  0  0  0  0
   -3.0163    0.8599    2.8345 H   0  0  0  0  0  0  0  0  0  0  0  0
   -3.5315    0.6701    1.1535 H   0  0  0  0  0  0  0  0  0  0  0  0
   -4.0405    2.1005    2.0819 H   0  0  0  0  0  0  0  0  0  0  0  0
   -4.8625   -0.7867    2.7399 H   0  0  0  0  0  0  0  0  0  0  0  0
   -5.2705    0.6375    3.6445 H   0  0  0  0  0  0  0  0  0  0  0  0
   -6.4404    1.5767    1.5865 H   0  0  0  0  0  0  0  0  0  0  0  0
   -7.5905    0.7102    3.5756 H   0  0  0  0  0  0  0  0  0  0  0  0
   -8.5010    0.1986    2.1450 H   0  0  0  0  0  0  0  0  0  0  0  0
   -7.4496   -0.9568    2.9888 H   0  0  0  0  0  0  0  0  0  0  0  0
   -7.5347   -0.0414    0.1263 H   0  0  0  0  0  0  0  0  0  0  0  0
   -5.0114    2.0599   -0.2080 H   0  0  0  0  0  0  0  0  0  0  0  0
   -4.2397    0.7596   -2.7837 H   0  0  0  0  0  0  0  0  0  0  0  0
   -2.5332    1.7504   -0.3194 H   0  0  0  0  0  0  0  0  0  0  0  0
   -0.3814    2.6518   -2.1775 H   0  0  0  0  0  0  0  0  0  0  0  0
    1.4969    1.3732   -1.8072 H   0  0  0  0  0  0  0  0  0  0  0  0
    1.5914   -0.2950    0.6918 H   0  0  0  0  0  0  0  0  0  0  0  0
    2.0418   -2.3213   -0.6953 H   0  0  0  0  0  0  0  0  0  0  0  0
    2.0481   -1.3450   -2.1547 H   0  0  0  0  0  0  0  0  0  0  0  0
   -1.0031   -4.8570    0.9821 H   0  0  0  0  0  0  0  0  0  0  0  0
    0.2755   -4.6662   -0.2169 H   0  0  0  0  0  0  0  0  0  0  0  0
   -1.3190   -6.1413   -1.1503 H   0  0  0  0  0  0  0  0  0  0  0  0
   -3.2328   -3.1948   -0.5200 H   0  0  0  0  0  0  0  0  0  0  0  0
   -5.7288   -3.9603   -0.9124 H   0  0  0  0  0  0  0  0  0  0  0  0
   -7.2075   -2.1927    0.0347 H   0  0  0  0  0  0  0  0  0  0  0  0
   -5.2341   -4.4634    2.1083 H   0  0  0  0  0  0  0  0  0  0  0  0
   -5.4924   -5.7684    0.9728 H   0  0  0  0  0  0  0  0  0  0  0  0
   -7.1552   -3.5072    3.1708 H   0  0  0  0  0  0  0  0  0  0  0  0
   -9.6112   -3.3480    3.4011 H   0  0  0  0  0  0  0  0  0  0  0  0
  -10.1279   -5.5993   -0.2290 H   0  0  0  0  0  0  0  0  0  0  0  0
   -7.6809   -5.7784   -0.4739 H   0  0  0  0  0  0  0  0  0  0  0  0
  -11.8153   -4.8587    1.1085 H   0  0  0  0  0  0  0  0  0  0  0  0
   -0.7236   -4.2313   -2.6477 H   0  0  0  0  0  0  0  0  0  0  0  0
   -1.9754   -5.2144   -3.0829 H   0  0  0  0  0  0  0  0  0  0  0  0
    2.3697    2.4821    0.5598 H   0  0  0  0  0  0  0  0  0  0  0  0
    3.4589    2.0665    1.9063 H   0  0  0  0  0  0  0  0  0  0  0  0
    4.0732    3.7921   -0.5524 H   0  0  0  0  0  0  0  0  0  0  0  0
    4.2409    4.2976    1.1391 H   0  0  0  0  0  0  0  0  0  0  0  0
    6.1367    2.8465    1.4562 H   0  0  0  0  0  0  0  0  0  0  0  0
    6.3883    3.3325   -0.2150 H   0  0  0  0  0  0  0  0  0  0  0  0
    5.7199    1.2245   -1.0761 H   0  0  0  0  0  0  0  0  0  0  0  0
    7.8246    0.5019   -0.5096 H   0  0  0  0  0  0  0  0  0  0  0  0
    7.9978   -1.0862    1.9700 H   0  0  0  0  0  0  0  0  0  0  0  0
    9.7971   -2.3585    0.8309 H   0  0  0  0  0  0  0  0  0  0  0  0
    8.2074   -2.4767    0.1171 H   0  0  0  0  0  0  0  0  0  0  0  0
    8.8752   -0.9000   -1.7017 H   0  0  0  0  0  0  0  0  0  0  0  0
   10.6787    0.4147   -0.7392 H   0  0  0  0  0  0  0  0  0  0  0  0
   11.6270   -1.0389   -0.3588 H   0  0  0  0  0  0  0  0  0  0  0  0
   11.3743   -0.5372   -2.0396 H   0  0  0  0  0  0  0  0  0  0  0  0
   10.7122   -3.3321   -1.4207 H   0  0  0  0  0  0  0  0  0  0  0  0
   10.2259   -2.5219   -2.9328 H   0  0  0  0  0  0  0  0  0  0  0  0
    9.0147   -3.3766   -1.9546 H   0  0  0  0  0  0  0  0  0  0  0  0
    8.7972    1.8823    1.1988 H   0  0  0  0  0  0  0  0  0  0  0  0
   10.0718    3.4324    2.3397 H   0  0  0  0  0  0  0  0  0  0  0  0
   10.6938    2.1303    3.3976 H   0  0  0  0  0  0  0  0  0  0  0  0
   13.8406    3.0350    2.0560 H   0  0  0  0  0  0  0  0  0  0  0  0
   12.7492    3.2754    3.3931 H   0  0  0  0  0  0  0  0  0  0  0  0
    0.7568    3.9197   -0.4225 H   0  0  0  0  0  0  0  0  0  0  0  0
   -0.5736    3.7182    0.6908 H   0  0  0  0  0  0  0  0  0  0  0  0
   -0.2594    6.0922    0.8540 H   0  0  0  0  0  0  0  0  0  0  0  0
   -0.9698    7.0981   -0.4056 H   0  0  0  0  0  0  0  0  0  0  0  0
   -6.2795    2.0943   -3.2743 H   0  0  0  0  0  0  0  0  0  0  0  0
   -4.8391    2.6593   -4.1327 H   0  0  0  0  0  0  0  0  0  0  0  0
   -4.5810    4.4666   -2.2735 H   0  0  0  0  0  0  0  0  0  0  0  0
   -6.1414    3.9064   -1.6940 H   0  0  0  0  0  0  0  0  0  0  0  0
   -6.7795    6.7570   -3.8425 H   0  0  0  0  0  0  0  0  0  0  0  0
   -5.8087    6.5566   -2.4488 H   0  0  0  0  0  0  0  0  0  0  0  0
  1  2  1  0
  2  3  1  0
  3  4  1  0
  3  5  1  0
  5  6  1  0
  6  7  2  0
  6  8  1  0
  8  9  1  0
  9 10  1  0
 10 11  2  0
 10 12  1  0
 12 13  1  0
 13 14  1  0
 14 15  2  0
 14 16  1  0
 16 17  1  0
 17 18  1  0
 18 19  1  0
 19 20  1  0
 20 21  1  0
 21 22  1  0
 22 23  1  0
 23 24  2  0
 23 25  1  0
 25 26  1  0
 26 27  1  0
 27 28  2  0
 27 29  1  0
 26 30  1  0
 30 31  1  0
 31 32  2  0
 32 33  1  0
 33 34  2  0
 34 35  1  0
 35 36  2  0
 34 37  1  0
 22 38  1  0
 17 39  1  0
 39 40  2  0
 39 41  1  0
 41 42  1  0
 42 43  1  0
 43 44  1  0
 44 45  1  0
 45 46  1  0
 46 47  2  0
 46 48  1  0
 48 49  1  0
 49 50  1  0
 50 51  1  0
 51 52  1  0
 51 53  1  0
 49 54  1  0
 54 55  2  0
 54 56  1  0
 56 57  1  0
 57 58  1  0
 58 59  2  0
 58 60  1  0
 13 61  1  0
 61 62  1  0
 62 63  2  0
 62 64  1  0
  9 65  1  0
 65 66  1  0
 66 67  1  0
 67 68  2  0
 67 69  1  0
 29  5  1  0
 36 31  1  0
 45 41  1  0
  1 70  1  0
  1 71  1  0
  1 72  1  0
  2 73  1  0
  2 74  1  0
  3 75  1  6
  4 76  1  0
  4 77  1  0
  4 78  1  0
  5 79  1  6
  8 80  1  0
  9 81  1  6
 12 82  1  0
 13 83  1  6
 16 84  1  0
 17 85  1  1
 18 86  1  0
 18 87  1  0
 21 88  1  0
 21 89  1  0
 22 90  1  6
 25 91  1  0
 26 92  1  6
 29 93  1  0
 30 94  1  0
 30 95  1  0
 32 96  1  0
 33 97  1  0
 35 98  1  0
 36 99  1  0
 37100  1  0
 38101  1  0
 38102  1  0
 42103  1  0
 42104  1  0
 43105  1  0
 43106  1  0
 44107  1  0
 44108  1  0
 45109  1  6
 48110  1  0
 49111  1  1
 50112  1  0
 50113  1  0
 51114  1  0
 52115  1  0
 52116  1  0
 52117  1  0
 53118  1  0
 53119  1  0
 53120  1  0
 56121  1  0
 57122  1  0
 57123  1  0
 60124  1  0
 60125  1  0
 61126  1  0
 61127  1  0
 64128  1  0
 64129  1  0
 65130  1  0
 65131  1  0
 66132  1  0
 66133  1  0
 69134  1  0
 69135  1  0
M  END
$$$$
