
     RDKit          3D

 34 36  0  0  0  0  0  0  0  0999 V2000
    2.3053   -1.1944   -0.7672 C   0  0  0  0  0  0  0  0  0  0  0  0
    3.6545   -1.5404   -0.6192 C   0  0  0  0  0  0  0  0  0  0  0  0
    4.5107   -0.6573    0.0123 C   0  0  0  0  0  0  0  0  0  0  0  0
    4.0385    0.5592    0.5011 C   0  0  0  0  0  0  0  0  0  0  0  0
    2.6908    0.9086    0.3635 C   0  0  0  0  0  0  0  0  0  0  0  0
    1.7972    0.0309   -0.2669 C   0  0  0  0  0  0  0  0  0  0  0  0
    0.3093    0.3364   -0.4546 C   0  0  2  0  0  0  0  0  0  0  0  0
   -0.2074    1.6631    0.1255 C   0  0  2  0  0  0  0  0  0  0  0  0
   -1.7185    1.7602   -0.0514 C   0  0  0  0  0  0  0  0  0  0  0  0
   -2.2620    2.8634   -0.0786 O   0  0  0  0  0  0  0  0  0  0  0  0
   -2.4644    0.4737   -0.0957 C   0  0  0  0  0  0  0  0  0  0  0  0
   -3.8640    0.4015   -0.2188 C   0  0  0  0  0  0  0  0  0  0  0  0
   -4.5183   -0.8245   -0.1689 C   0  0  0  0  0  0  0  0  0  0  0  0
   -3.7830   -1.9789    0.0427 C   0  0  0  0  0  0  0  0  0  0  0  0
   -2.3871   -1.9318    0.1595 C   0  0  0  0  0  0  0  0  0  0  0  0
   -1.7383   -0.7088    0.0615 C   0  0  0  0  0  0  0  0  0  0  0  0
   -0.3759   -0.7590    0.1872 O   0  0  0  0  0  0  0  0  0  0  0  0
   -4.4448   -3.1612    0.1096 O   0  0  0  0  0  0  0  0  0  0  0  0
   -4.6173    1.5255   -0.4270 O   0  0  0  0  0  0  0  0  0  0  0  0
    0.3801    2.7987   -0.5229 O   0  0  0  0  0  0  0  0  0  0  0  0
    4.9383    1.3851    1.1088 O   0  0  0  0  0  0  0  0  0  0  0  0
    5.8249   -0.9889    0.1596 O   0  0  0  0  0  0  0  0  0  0  0  0
    1.6292   -1.8918   -1.2662 H   0  0  0  0  0  0  0  0  0  0  0  0
    4.0176   -2.4942   -0.9947 H   0  0  0  0  0  0  0  0  0  0  0  0
    2.3780    1.8771    0.7426 H   0  0  0  0  0  0  0  0  0  0  0  0
    0.1191    0.3038   -1.5391 H   0  0  0  0  0  0  0  0  0  0  0  0
    0.0044    1.7462    1.1979 H   0  0  0  0  0  0  0  0  0  0  0  0
   -5.5983   -0.8883   -0.3003 H   0  0  0  0  0  0  0  0  0  0  0  0
   -1.8127   -2.8402    0.3060 H   0  0  0  0  0  0  0  0  0  0  0  0
   -3.8498   -3.8306    0.5030 H   0  0  0  0  0  0  0  0  0  0  0  0
   -5.4425    1.4404    0.0993 H   0  0  0  0  0  0  0  0  0  0  0  0
   -0.1959    3.5638   -0.3063 H   0  0  0  0  0  0  0  0  0  0  0  0
    4.4575    1.8081    1.8563 H   0  0  0  0  0  0  0  0  0  0  0  0
    6.2250   -0.1780    0.5414 H   0  0  0  0  0  0  0  0  0  0  0  0
  1  2  2  0
  2  3  1  0
  3  4  2  0
  4  5  1  0
  5  6  2  0
  6  7  1  0
  7  8  1  0
  8  9  1  0
  9 10  2  0
  9 11  1  0
 11 12  2  0
 12 13  1  0
 13 14  2  0
 14 15  1  0
 15 16  2  0
 16 17  1  0
 14 18  1  0
 12 19  1  0
  8 20  1  0
  4 21  1  0
  3 22  1  0
  6  1  1  0
 17  7  1  0
 16 11  1  0
  1 23  1  0
  2 24  1  0
  5 25  1  0
  7 26  1  6
  8 27  1  1
 13 28  1  0
 15 29  1  0
 18 30  1  0
 19 31  1  0
 20 32  1  0
 21 33  1  0
 22 34  1  0
M  END
$$$$
