
     RDKit          3D

 41 43  0  0  0  0  0  0  0  0999 V2000
    4.2902    0.4730    0.3636 C   0  0  0  0  0  0  0  0  0  0  0  0
    3.7440   -0.0948    1.6549 C   0  0  0  0  0  0  0  0  0  0  0  0
    2.7448   -1.5639    1.4471 S   0  0  0  0  0  6  0  0  0  0  0  0
    2.3658   -2.0285    2.7654 O   0  0  0  0  0  0  0  0  0  0  0  0
    3.3801   -2.4503    0.4989 O   0  0  0  0  0  0  0  0  0  0  0  0
    1.3173   -0.9798    0.7300 N   0  0  0  0  0  0  0  0  0  0  0  0
    1.1737   -0.5499   -0.7029 C   0  0  0  0  0  0  0  0  0  0  0  0
   -0.2635   -1.1236   -0.7460 C   0  0  0  0  0  0  0  0  0  0  0  0
   -0.5406   -1.9483   -2.0176 C   0  0  0  0  0  0  0  0  0  0  0  0
    0.5124   -2.9099   -2.3769 C   0  0  0  0  0  0  0  0  0  0  0  0
    1.3306   -3.6730   -2.6786 N   0  0  0  0  0  0  0  0  0  0  0  0
    0.1153   -1.8693    0.5581 C   0  0  0  0  0  0  0  0  0  0  0  0
   -1.4046   -0.1495   -0.4731 N   0  0  0  0  0  0  0  0  0  0  0  0
   -2.7111   -0.5390   -0.7000 C   0  0  0  0  0  0  0  0  0  0  0  0
   -3.5091    0.5823   -0.7346 C   0  0  0  0  0  0  0  0  0  0  0  0
   -4.9569    0.6527   -1.0532 C   0  0  0  0  0  0  0  0  0  0  0  0
   -2.6814    1.6621   -0.3469 C   0  0  0  0  0  0  0  0  0  0  0  0
   -3.0509    2.9502   -0.1981 N   0  0  0  0  0  0  0  0  0  0  0  0
   -2.0929    3.7232    0.3068 C   0  0  0  0  0  0  0  0  0  0  0  0
   -0.8727    3.3417    0.7041 N   0  0  0  0  0  0  0  0  0  0  0  0
   -0.5094    2.0563    0.5555 C   0  0  0  0  0  0  0  0  0  0  0  0
    0.7065    1.7273    1.1238 N   0  0  0  0  0  0  0  0  0  0  0  0
   -1.4001    1.1753   -0.0583 C   0  0  0  0  0  0  0  0  0  0  0  0
    4.9671    1.3062    0.5773 H   0  0  0  0  0  0  0  0  0  0  0  0
    3.4946    0.8534   -0.2796 H   0  0  0  0  0  0  0  0  0  0  0  0
    4.8495   -0.2801   -0.1998 H   0  0  0  0  0  0  0  0  0  0  0  0
    3.1500    0.6416    2.2029 H   0  0  0  0  0  0  0  0  0  0  0  0
    4.5768   -0.3929    2.3015 H   0  0  0  0  0  0  0  0  0  0  0  0
    1.2884    0.5157   -0.9004 H   0  0  0  0  0  0  0  0  0  0  0  0
    1.9175   -1.0490   -1.3343 H   0  0  0  0  0  0  0  0  0  0  0  0
   -1.4570   -2.5375   -1.9089 H   0  0  0  0  0  0  0  0  0  0  0  0
   -0.6942   -1.2697   -2.8664 H   0  0  0  0  0  0  0  0  0  0  0  0
   -0.5792   -1.7836    1.3996 H   0  0  0  0  0  0  0  0  0  0  0  0
    0.3908   -2.9224    0.4368 H   0  0  0  0  0  0  0  0  0  0  0  0
   -2.9830   -1.5707   -0.8771 H   0  0  0  0  0  0  0  0  0  0  0  0
   -5.1289    1.3186   -1.9047 H   0  0  0  0  0  0  0  0  0  0  0  0
   -5.5201    1.0337   -0.1954 H   0  0  0  0  0  0  0  0  0  0  0  0
   -5.3556   -0.3342   -1.3093 H   0  0  0  0  0  0  0  0  0  0  0  0
   -2.3319    4.7744    0.4292 H   0  0  0  0  0  0  0  0  0  0  0  0
    0.7490    0.7786    1.4866 H   0  0  0  0  0  0  0  0  0  0  0  0
    0.9785    2.4535    1.7792 H   0  0  0  0  0  0  0  0  0  0  0  0
  1  2  1  0
  2  3  1  0
  3  4  2  0
  3  5  2  0
  3  6  1  0
  6  7  1  0
  7  8  1  0
  8  9  1  0
  9 10  1  0
 10 11  3  0
  8 12  1  0
  8 13  1  0
 13 14  1  0
 14 15  2  0
 15 16  1  0
 15 17  1  0
 17 18  2  0
 18 19  1  0
 19 20  2  0
 20 21  1  0
 21 22  1  0
 21 23  2  0
 12  6  1  0
 23 13  1  0
 23 17  1  0
  1 24  1  0
  1 25  1  0
  1 26  1  0
  2 27  1  0
  2 28  1  0
  7 29  1  0
  7 30  1  0
  9 31  1  0
  9 32  1  0
 12 33  1  0
 12 34  1  0
 14 35  1  0
 16 36  1  0
 16 37  1  0
 16 38  1  0
 19 39  1  0
 22 40  1  0
 22 41  1  0
M  END
$$$$
