
     RDKit          3D

116122  0  0  0  0  0  0  0  0999 V2000
    1.8153   -0.4304   -2.7514 C   0  0  0  0  0  0  0  0  0  0  0  0
    1.9139   -1.0174   -1.3033 C   0  0  1  0  0  0  0  0  0  0  0  0
    2.6086   -2.3930   -1.4082 C   0  0  0  0  0  0  0  0  0  0  0  0
    4.0561   -2.2811   -1.9099 C   0  0  0  0  0  0  0  0  0  0  0  0
    4.7696   -0.9727   -1.5730 C   0  0  0  0  0  0  0  0  0  0  0  0
    4.3047   -0.2828   -0.2781 C   0  0  1  0  0  0  0  0  0  0  0  0
    2.7089   -0.1077   -0.2958 C   0  0  1  0  0  0  0  0  0  0  0  0
    2.1539    1.3302   -0.3050 C   0  0  0  0  0  0  0  0  0  0  0  0
    0.6391    1.4303   -0.6001 C   0  0  0  0  0  0  0  0  0  0  0  0
   -0.2152    0.1819   -0.2675 C   0  0  2  0  0  0  0  0  0  0  0  0
    0.4833   -1.1875   -0.6658 C   0  0  1  0  0  0  0  0  0  0  0  0
   -0.4759   -2.1145   -1.4439 C   0  0  0  0  0  0  0  0  0  0  0  0
   -1.8570   -2.2195   -0.7450 C   0  0  0  0  0  0  0  0  0  0  0  0
   -2.3808   -0.8884   -0.1180 C   0  0  2  0  0  0  0  0  0  0  0  0
   -1.6648    0.2840   -0.8339 C   0  0  0  0  0  0  0  0  0  0  0  0
   -1.8371   -0.6698    1.3074 C   0  0  0  0  0  0  0  0  0  0  0  0
   -2.3657   -1.0031    2.4957 C   0  0  0  0  0  0  0  0  0  0  0  0
   -0.5638    0.1465    1.2484 C   0  0  0  0  0  0  0  0  0  0  0  0
   -3.8104   -0.7413   -0.2069 O   0  0  0  0  0  0  0  0  0  0  0  0
   -4.6018   -1.8865    0.2150 C   0  0  1  0  0  0  0  0  0  0  0  0
   -5.9841   -1.4237    0.7581 C   0  0  1  0  0  0  0  0  0  0  0  0
   -6.7619   -2.6338    1.3614 C   0  0  2  0  0  0  0  0  0  0  0  0
   -6.2839   -3.9738    0.7591 C   0  0  1  0  0  0  0  0  0  0  0  0
   -5.8048   -3.8044   -0.7032 C   0  0  2  0  0  0  0  0  0  0  0  0
   -4.8468   -2.7401   -0.9182 O   0  0  0  0  0  0  0  0  0  0  0  0
   -7.0067   -3.6014   -1.6656 C   0  0  0  0  0  0  0  0  0  0  0  0
   -6.5420   -3.6326   -3.0119 O   0  0  0  0  0  0  0  0  0  0  0  0
   -5.2086   -4.4467    1.5940 O   0  0  0  0  0  0  0  0  0  0  0  0
   -8.1590   -2.4060    1.1430 O   0  0  0  0  0  0  0  0  0  0  0  0
   -5.8977   -0.4098    1.7854 O   0  0  0  0  0  0  0  0  0  0  0  0
   -6.6357    0.7849    1.4638 C   0  0  1  0  0  0  0  0  0  0  0  0
   -7.3147    1.2910    2.7655 C   0  0  1  0  0  0  0  0  0  0  0  0
   -7.3192    2.8434    2.8675 C   0  0  2  0  0  0  0  0  0  0  0  0
   -7.4544    3.4889    1.4711 C   0  0  1  0  0  0  0  0  0  0  0  0
   -6.4004    2.9580    0.4629 C   0  0  2  0  0  0  0  0  0  0  0  0
   -5.7520    1.7574    0.9193 O   0  0  0  0  0  0  0  0  0  0  0  0
   -5.2809    3.9832    0.1958 C   0  0  0  0  0  0  0  0  0  0  0  0
   -4.3659    3.5592   -0.8101 O   0  0  0  0  0  0  0  0  0  0  0  0
   -8.8011    3.2847    0.9856 O   0  0  0  0  0  0  0  0  0  0  0  0
   -6.1541    3.3065    3.5639 O   0  0  0  0  0  0  0  0  0  0  0  0
   -8.6839    0.8046    2.7715 O   0  0  0  0  0  0  0  0  0  0  0  0
    4.6706   -1.1868    0.9387 C   0  0  0  0  0  0  0  0  0  0  0  0
    5.2137    0.9697   -0.0232 C   0  0  0  0  0  0  0  0  0  0  0  0
    4.9068    2.0002    0.5469 O   0  0  0  0  0  0  0  0  0  0  0  0
    6.4799    0.6536   -0.4289 O   0  0  0  0  0  0  0  0  0  0  0  0
    7.5430    1.5823   -0.1865 C   0  0  1  0  0  0  0  0  0  0  0  0
    8.3036    1.1002    1.0915 C   0  0  1  0  0  0  0  0  0  0  0  0
    9.7192    1.6996    1.1878 C   0  0  2  0  0  0  0  0  0  0  0  0
   10.4720    1.6115   -0.1453 C   0  0  1  0  0  0  0  0  0  0  0  0
    9.6047    2.2450   -1.2509 C   0  0  2  0  0  0  0  0  0  0  0  0
    8.3663    1.5292   -1.3674 O   0  0  0  0  0  0  0  0  0  0  0  0
   10.3484    2.2371   -2.6012 C   0  0  0  0  0  0  0  0  0  0  0  0
   11.4649    3.1226   -2.5545 O   0  0  0  0  0  0  0  0  0  0  0  0
   11.7553    2.2395   -0.0154 O   0  0  0  0  0  0  0  0  0  0  0  0
   10.5202    1.0616    2.1994 O   0  0  0  0  0  0  0  0  0  0  0  0
    7.5934    1.4114    2.3022 O   0  0  0  0  0  0  0  0  0  0  0  0
    1.9124   -1.2119   -3.5228 H   0  0  0  0  0  0  0  0  0  0  0  0
    2.5924    0.3134   -2.9564 H   0  0  0  0  0  0  0  0  0  0  0  0
    0.8430    0.0466   -2.9469 H   0  0  0  0  0  0  0  0  0  0  0  0
    2.0838   -3.0875   -2.0773 H   0  0  0  0  0  0  0  0  0  0  0  0
    2.6143   -2.8807   -0.4347 H   0  0  0  0  0  0  0  0  0  0  0  0
    4.0774   -2.4153   -3.0145 H   0  0  0  0  0  0  0  0  0  0  0  0
    4.6343   -3.1364   -1.5223 H   0  0  0  0  0  0  0  0  0  0  0  0
    5.8359   -1.2218   -1.5703 H   0  0  0  0  0  0  0  0  0  0  0  0
    4.6480   -0.2731   -2.3979 H   0  0  0  0  0  0  0  0  0  0  0  0
    2.4156   -0.4661    0.6947 H   0  0  0  0  0  0  0  0  0  0  0  0
    2.3157    1.7769    0.6821 H   0  0  0  0  0  0  0  0  0  0  0  0
    2.6887    1.9479   -1.0327 H   0  0  0  0  0  0  0  0  0  0  0  0
    0.5233    1.6803   -1.6597 H   0  0  0  0  0  0  0  0  0  0  0  0
    0.2372    2.3107   -0.0902 H   0  0  0  0  0  0  0  0  0  0  0  0
    0.6599   -1.7470    0.2723 H   0  0  0  0  0  0  0  0  0  0  0  0
   -0.6124   -1.7307   -2.4670 H   0  0  0  0  0  0  0  0  0  0  0  0
   -0.0631   -3.1259   -1.5535 H   0  0  0  0  0  0  0  0  0  0  0  0
   -1.7859   -2.9909    0.0305 H   0  0  0  0  0  0  0  0  0  0  0  0
   -2.5405   -2.6024   -1.5109 H   0  0  0  0  0  0  0  0  0  0  0  0
   -2.1317    1.2374   -0.5925 H   0  0  0  0  0  0  0  0  0  0  0  0
   -1.7139    0.2006   -1.9198 H   0  0  0  0  0  0  0  0  0  0  0  0
   -3.2881   -1.5197    2.6404 H   0  0  0  0  0  0  0  0  0  0  0  0
   -1.8670   -0.7319    3.4246 H   0  0  0  0  0  0  0  0  0  0  0  0
    0.2411   -0.2779    1.8497 H   0  0  0  0  0  0  0  0  0  0  0  0
   -0.7628    1.1723    1.6059 H   0  0  0  0  0  0  0  0  0  0  0  0
   -4.0494   -2.4605    0.9565 H   0  0  0  0  0  0  0  0  0  0  0  0
   -6.5243   -1.0352   -0.1233 H   0  0  0  0  0  0  0  0  0  0  0  0
   -6.6052   -2.6587    2.4532 H   0  0  0  0  0  0  0  0  0  0  0  0
   -7.0691   -4.7413    0.7968 H   0  0  0  0  0  0  0  0  0  0  0  0
   -5.2824   -4.7220   -1.0144 H   0  0  0  0  0  0  0  0  0  0  0  0
   -7.7468   -4.4045   -1.5572 H   0  0  0  0  0  0  0  0  0  0  0  0
   -7.5149   -2.6474   -1.4923 H   0  0  0  0  0  0  0  0  0  0  0  0
   -5.8890   -2.8985   -3.0818 H   0  0  0  0  0  0  0  0  0  0  0  0
   -4.9492   -5.3148    1.2618 H   0  0  0  0  0  0  0  0  0  0  0  0
   -8.6517   -3.2661    1.1957 H   0  0  0  0  0  0  0  0  0  0  0  0
   -7.4300    0.5705    0.7328 H   0  0  0  0  0  0  0  0  0  0  0  0
   -6.8208    0.8687    3.6471 H   0  0  0  0  0  0  0  0  0  0  0  0
   -8.1927    3.1550    3.4571 H   0  0  0  0  0  0  0  0  0  0  0  0
   -7.3500    4.5787    1.5455 H   0  0  0  0  0  0  0  0  0  0  0  0
   -6.8792    2.7044   -0.4935 H   0  0  0  0  0  0  0  0  0  0  0  0
   -5.7091    4.9385   -0.1154 H   0  0  0  0  0  0  0  0  0  0  0  0
   -4.6932    4.1529    1.1033 H   0  0  0  0  0  0  0  0  0  0  0  0
   -4.7773    2.8141   -1.3142 H   0  0  0  0  0  0  0  0  0  0  0  0
   -8.9004    2.3473    0.7124 H   0  0  0  0  0  0  0  0  0  0  0  0
   -6.1947    4.2819    3.5753 H   0  0  0  0  0  0  0  0  0  0  0  0
   -9.0587    1.0050    3.6519 H   0  0  0  0  0  0  0  0  0  0  0  0
    5.7526   -1.4419    0.9880 H   0  0  0  0  0  0  0  0  0  0  0  0
    4.4212   -0.6813    1.8879 H   0  0  0  0  0  0  0  0  0  0  0  0
    4.1365   -2.1509    0.9466 H   0  0  0  0  0  0  0  0  0  0  0  0
    7.1599    2.6082   -0.0555 H   0  0  0  0  0  0  0  0  0  0  0  0
    8.3918    0.0062    1.0499 H   0  0  0  0  0  0  0  0  0  0  0  0
    9.6536    2.7476    1.5076 H   0  0  0  0  0  0  0  0  0  0  0  0
   10.6624    0.5511   -0.3722 H   0  0  0  0  0  0  0  0  0  0  0  0
    9.3999    3.2929   -0.9878 H   0  0  0  0  0  0  0  0  0  0  0  0
    9.6737    2.5663   -3.3961 H   0  0  0  0  0  0  0  0  0  0  0  0
   10.6812    1.2259   -2.8721 H   0  0  0  0  0  0  0  0  0  0  0  0
   12.0005    2.8435   -1.7851 H   0  0  0  0  0  0  0  0  0  0  0  0
   12.1122    1.8904    0.8307 H   0  0  0  0  0  0  0  0  0  0  0  0
   10.0712    0.1980    2.4235 H   0  0  0  0  0  0  0  0  0  0  0  0
    6.6289    1.3657    2.1090 H   0  0  0  0  0  0  0  0  0  0  0  0
  2  1  1  6
  2  3  1  0
  3  4  1  0
  4  5  1  0
  5  6  1  0
  6  7  1  0
  7  8  1  0
  8  9  1  0
 10  9  1  1
 10 11  1  0
 11 12  1  0
 12 13  1  0
 13 14  1  0
 14 15  1  0
 14 16  1  0
 16 17  2  3
 16 18  1  0
 14 19  1  1
 19 20  1  0
 20 21  1  0
 21 22  1  0
 22 23  1  0
 23 24  1  0
 24 25  1  0
 24 26  1  0
 26 27  1  0
 23 28  1  0
 22 29  1  0
 21 30  1  0
 30 31  1  0
 31 32  1  0
 32 33  1  0
 33 34  1  0
 34 35  1  0
 35 36  1  0
 35 37  1  0
 37 38  1  0
 34 39  1  0
 33 40  1  0
 32 41  1  0
  6 42  1  1
  6 43  1  0
 43 44  2  0
 43 45  1  0
 45 46  1  0
 46 47  1  0
 47 48  1  0
 48 49  1  0
 49 50  1  0
 50 51  1  0
 50 52  1  0
 52 53  1  0
 49 54  1  0
 48 55  1  0
 47 56  1  0
  7  2  1  0
 11  2  1  0
 15 10  1  0
 18 10  1  0
 25 20  1  0
 36 31  1  0
 51 46  1  0
  1 57  1  0
  1 58  1  0
  1 59  1  0
  3 60  1  0
  3 61  1  0
  4 62  1  0
  4 63  1  0
  5 64  1  0
  5 65  1  0
  7 66  1  1
  8 67  1  0
  8 68  1  0
  9 69  1  0
  9 70  1  0
 11 71  1  1
 12 72  1  0
 12 73  1  0
 13 74  1  0
 13 75  1  0
 15 76  1  0
 15 77  1  0
 17 78  1  0
 17 79  1  0
 18 80  1  0
 18 81  1  0
 20 82  1  1
 21 83  1  6
 22 84  1  1
 23 85  1  6
 24 86  1  6
 26 87  1  0
 26 88  1  0
 27 89  1  0
 28 90  1  0
 29 91  1  0
 31 92  1  6
 32 93  1  1
 33 94  1  1
 34 95  1  1
 35 96  1  6
 37 97  1  0
 37 98  1  0
 38 99  1  0
 39100  1  0
 40101  1  0
 41102  1  0
 42103  1  0
 42104  1  0
 42105  1  0
 46106  1  1
 47107  1  6
 48108  1  1
 49109  1  6
 50110  1  1
 52111  1  0
 52112  1  0
 53113  1  0
 54114  1  0
 55115  1  0
 56116  1  0
M  END
$$$$
