
     RDKit          3D

 78 81  0  0  0  0  0  0  0  0999 V2000
   -3.6737   -5.2296    2.1889 C   0  0  0  0  0  0  0  0  0  0  0  0
   -2.4962   -4.3870    2.0091 N   0  0  0  0  0  0  0  0  0  0  0  0
   -2.7277   -2.9949    2.4000 C   0  0  0  0  0  0  0  0  0  0  0  0
   -3.6239   -2.1404    1.5007 C   0  0  0  0  0  0  0  0  0  0  0  0
   -3.2973   -2.1911    0.0117 C   0  0  0  0  0  0  0  0  0  0  0  0
   -1.8678   -2.2259   -0.2536 N   0  0  0  0  0  0  0  0  0  0  0  0
   -1.0656   -3.4075    0.0942 C   0  0  0  0  0  0  0  0  0  0  0  0
   -1.8928   -4.5818    0.6742 C   0  0  0  0  0  0  0  0  0  0  0  0
   -1.1819   -1.0345   -0.4086 C   0  0  0  0  0  0  0  0  0  0  0  0
    0.1455   -1.0789   -0.5842 N   0  0  0  0  0  0  0  0  0  0  0  0
    0.8140    0.0652   -0.7476 C   0  0  0  0  0  0  0  0  0  0  0  0
    2.1915    0.0099   -0.9207 C   0  0  0  0  0  0  0  0  0  0  0  0
    2.9662    1.1634   -1.0951 C   0  0  0  0  0  0  0  0  0  0  0  0
    2.3414    2.4204   -1.0804 C   0  0  0  0  0  0  0  0  0  0  0  0
    0.9580    2.4860   -0.9133 C   0  0  0  0  0  0  0  0  0  0  0  0
    0.1852    1.3075   -0.7542 C   0  0  0  0  0  0  0  0  0  0  0  0
   -1.2057    1.2698   -0.5845 C   0  0  0  0  0  0  0  0  0  0  0  0
   -1.8669    0.1157   -0.4061 N   0  0  0  0  0  0  0  0  0  0  0  0
   -1.9337    2.4865   -0.6175 N   0  0  0  0  0  0  0  0  0  0  0  0
   -3.3731    2.3899   -0.3246 C   0  0  0  0  0  0  0  0  0  0  0  0
   -4.0674    3.6556   -0.8451 C   0  0  0  0  0  0  0  0  0  0  0  0
   -5.5469    3.6604   -0.4588 C   0  0  0  0  0  0  0  0  0  0  0  0
   -5.7932    3.4937    0.9779 N   0  0  0  0  0  0  0  0  0  0  0  0
   -5.0974    2.3146    1.5087 C   0  0  0  0  0  0  0  0  0  0  0  0
   -3.6044    2.2720    1.1861 C   0  0  0  0  0  0  0  0  0  0  0  0
   -5.4852    4.7045    1.7376 C   0  0  0  0  0  0  0  0  0  0  0  0
    3.1570    3.5100   -1.2472 O   0  0  0  0  0  0  0  0  0  0  0  0
    2.5964    4.7925   -1.0027 C   0  0  0  0  0  0  0  0  0  0  0  0
    4.3270    1.1662   -1.2763 O   0  0  0  0  0  0  0  0  0  0  0  0
    4.9992   -0.0948   -1.2928 C   0  0  0  0  0  0  0  0  0  0  0  0
    6.4814    0.1693   -1.5373 C   0  0  0  0  0  0  0  0  0  0  0  0
    7.3082   -1.1033   -1.7336 C   0  0  0  0  0  0  0  0  0  0  0  0
    7.2858   -1.9476   -0.5295 N   0  0  0  0  0  0  0  0  0  0  0  0
    8.6413   -2.2498   -0.0671 C   0  0  0  0  0  0  0  0  0  0  0  0
    6.5485   -3.1923   -0.7581 C   0  0  0  0  0  0  0  0  0  0  0  0
   -4.4904   -4.9494    1.5144 H   0  0  0  0  0  0  0  0  0  0  0  0
   -4.0421   -5.1684    3.2188 H   0  0  0  0  0  0  0  0  0  0  0  0
   -3.4241   -6.2811    2.0085 H   0  0  0  0  0  0  0  0  0  0  0  0
   -3.1450   -2.9751    3.4158 H   0  0  0  0  0  0  0  0  0  0  0  0
   -1.7568   -2.4957    2.5133 H   0  0  0  0  0  0  0  0  0  0  0  0
   -4.6741   -2.4250    1.6399 H   0  0  0  0  0  0  0  0  0  0  0  0
   -3.5454   -1.1017    1.8463 H   0  0  0  0  0  0  0  0  0  0  0  0
   -3.7681   -3.0758   -0.4325 H   0  0  0  0  0  0  0  0  0  0  0  0
   -3.7940   -1.3570   -0.5000 H   0  0  0  0  0  0  0  0  0  0  0  0
   -0.2808   -3.1555    0.8203 H   0  0  0  0  0  0  0  0  0  0  0  0
   -0.5609   -3.7627   -0.8137 H   0  0  0  0  0  0  0  0  0  0  0  0
   -1.2241   -5.4493    0.7516 H   0  0  0  0  0  0  0  0  0  0  0  0
   -2.6556   -4.8653   -0.0625 H   0  0  0  0  0  0  0  0  0  0  0  0
    2.6459   -0.9760   -0.9121 H   0  0  0  0  0  0  0  0  0  0  0  0
    0.4468    3.4429   -0.8924 H   0  0  0  0  0  0  0  0  0  0  0  0
   -1.7659    2.8978   -1.5326 H   0  0  0  0  0  0  0  0  0  0  0  0
   -3.8218    1.5343   -0.8471 H   0  0  0  0  0  0  0  0  0  0  0  0
   -3.9777    3.7054   -1.9374 H   0  0  0  0  0  0  0  0  0  0  0  0
   -3.5702    4.5533   -0.4567 H   0  0  0  0  0  0  0  0  0  0  0  0
   -6.0539    2.8443   -0.9901 H   0  0  0  0  0  0  0  0  0  0  0  0
   -6.0208    4.5812   -0.8208 H   0  0  0  0  0  0  0  0  0  0  0  0
   -5.2437    2.2446    2.5939 H   0  0  0  0  0  0  0  0  0  0  0  0
   -5.5752    1.4175    1.0935 H   0  0  0  0  0  0  0  0  0  0  0  0
   -3.1849    1.3362    1.5716 H   0  0  0  0  0  0  0  0  0  0  0  0
   -3.0786    3.0771    1.7155 H   0  0  0  0  0  0  0  0  0  0  0  0
   -4.4303    4.9920    1.6858 H   0  0  0  0  0  0  0  0  0  0  0  0
   -6.0856    5.5459    1.3733 H   0  0  0  0  0  0  0  0  0  0  0  0
   -5.7496    4.5712    2.7930 H   0  0  0  0  0  0  0  0  0  0  0  0
    2.1694    4.8564    0.0040 H   0  0  0  0  0  0  0  0  0  0  0  0
    1.8530    5.0469   -1.7654 H   0  0  0  0  0  0  0  0  0  0  0  0
    3.4037    5.5281   -1.0679 H   0  0  0  0  0  0  0  0  0  0  0  0
    4.6031   -0.7169   -2.1050 H   0  0  0  0  0  0  0  0  0  0  0  0
    4.8623   -0.5963   -0.3275 H   0  0  0  0  0  0  0  0  0  0  0  0
    6.8873    0.7629   -0.7074 H   0  0  0  0  0  0  0  0  0  0  0  0
    6.5893    0.8029   -2.4275 H   0  0  0  0  0  0  0  0  0  0  0  0
    8.3323   -0.7919   -1.9783 H   0  0  0  0  0  0  0  0  0  0  0  0
    6.9485   -1.6444   -2.6186 H   0  0  0  0  0  0  0  0  0  0  0  0
    9.2170   -2.8093   -0.8132 H   0  0  0  0  0  0  0  0  0  0  0  0
    8.6115   -2.8363    0.8581 H   0  0  0  0  0  0  0  0  0  0  0  0
    9.1825   -1.3262    0.1671 H   0  0  0  0  0  0  0  0  0  0  0  0
    5.5174   -2.9839   -1.0635 H   0  0  0  0  0  0  0  0  0  0  0  0
    7.0171   -3.8147   -1.5298 H   0  0  0  0  0  0  0  0  0  0  0  0
    6.4868   -3.7765    0.1671 H   0  0  0  0  0  0  0  0  0  0  0  0
  1  2  1  0
  2  3  1  0
  3  4  1  0
  4  5  1  0
  5  6  1  0
  6  7  1  0
  7  8  1  0
  6  9  1  0
  9 10  2  0
 10 11  1  0
 11 12  2  0
 12 13  1  0
 13 14  2  0
 14 15  1  0
 15 16  2  0
 16 17  1  0
 17 18  2  0
 17 19  1  0
 19 20  1  0
 20 21  1  0
 21 22  1  0
 22 23  1  0
 23 24  1  0
 24 25  1  0
 23 26  1  0
 14 27  1  0
 27 28  1  0
 13 29  1  0
 29 30  1  0
 30 31  1  0
 31 32  1  0
 32 33  1  0
 33 34  1  0
 33 35  1  0
  8  2  1  0
 18  9  1  0
 16 11  1  0
 25 20  1  0
  1 36  1  0
  1 37  1  0
  1 38  1  0
  3 39  1  0
  3 40  1  0
  4 41  1  0
  4 42  1  0
  5 43  1  0
  5 44  1  0
  7 45  1  0
  7 46  1  0
  8 47  1  0
  8 48  1  0
 12 49  1  0
 15 50  1  0
 19 51  1  0
 20 52  1  0
 21 53  1  0
 21 54  1  0
 22 55  1  0
 22 56  1  0
 24 57  1  0
 24 58  1  0
 25 59  1  0
 25 60  1  0
 26 61  1  0
 26 62  1  0
 26 63  1  0
 28 64  1  0
 28 65  1  0
 28 66  1  0
 30 67  1  0
 30 68  1  0
 31 69  1  0
 31 70  1  0
 32 71  1  0
 32 72  1  0
 34 73  1  0
 34 74  1  0
 34 75  1  0
 35 76  1  0
 35 77  1  0
 35 78  1  0
M  END
$$$$
