
     RDKit          3D

 62 67  0  0  0  0  0  0  0  0999 V2000
   -1.5464    2.9843   -2.8749 C   0  0  0  0  0  0  0  0  0  0  0  0
   -0.3099    2.1741   -2.5328 C   0  0  2  0  0  0  0  0  0  0  0  0
    0.4146    1.6641   -3.7950 C   0  0  0  0  0  0  0  0  0  0  0  0
    1.5905    0.8238   -3.2750 C   0  0  2  0  0  0  0  0  0  0  0  0
    1.0686   -0.1861   -2.2459 C   0  0  2  0  0  0  0  0  0  0  0  0
   -0.4666   -0.4476   -2.1788 C   0  0  0  0  0  0  0  0  0  0  0  0
   -0.5772    0.9810   -1.5566 C   0  0  1  0  0  0  0  0  0  0  0  0
    0.8798    0.7698   -1.0218 C   0  0  2  0  0  0  0  0  0  0  0  0
    1.6372    2.0467   -1.4012 C   0  0  2  0  0  0  0  0  0  0  0  0
    0.6417    2.9818   -1.8253 O   0  0  0  0  0  0  0  0  0  0  0  0
    2.4473    1.6761   -2.5229 O   0  0  0  0  0  0  0  0  0  0  0  0
    1.2021    0.2538    0.3614 C   0  0  0  0  0  0  0  0  0  0  0  0
    2.6045   -0.0359    0.4296 O   0  0  0  0  0  0  0  0  0  0  0  0
    3.0055   -0.6051    1.6007 C   0  0  0  0  0  0  0  0  0  0  0  0
    2.2736   -0.9060    2.5295 O   0  0  0  0  0  0  0  0  0  0  0  0
    4.4715   -0.8275    1.5862 C   0  0  0  0  0  0  0  0  0  0  0  0
    5.0769   -1.3647    2.7347 C   0  0  0  0  0  0  0  0  0  0  0  0
    6.4462   -1.6088    2.7629 C   0  0  0  0  0  0  0  0  0  0  0  0
    7.2286   -1.3186    1.6374 C   0  0  0  0  0  0  0  0  0  0  0  0
    6.6350   -0.7790    0.4941 C   0  0  0  0  0  0  0  0  0  0  0  0
    5.2644   -0.5308    0.4626 C   0  0  0  0  0  0  0  0  0  0  0  0
   -1.6225    1.2832   -0.6058 O   0  0  0  0  0  0  0  0  0  0  0  0
   -2.1722    0.2678    0.2328 C   0  0  1  0  0  0  0  0  0  0  0  0
   -2.5303    0.8961    1.5962 C   0  0  1  0  0  0  0  0  0  0  0  0
   -3.2460   -0.1390    2.4594 C   0  0  2  0  0  0  0  0  0  0  0  0
   -4.4270   -0.7750    1.7236 C   0  0  1  0  0  0  0  0  0  0  0  0
   -3.9600   -1.3203    0.3595 C   0  0  2  0  0  0  0  0  0  0  0  0
   -3.3110   -0.3049   -0.4163 O   0  0  0  0  0  0  0  0  0  0  0  0
   -5.1422   -1.8653   -0.4601 C   0  0  0  0  0  0  0  0  0  0  0  0
   -5.8236   -2.9128    0.2191 O   0  0  0  0  0  0  0  0  0  0  0  0
   -4.9339   -1.8148    2.5624 O   0  0  0  0  0  0  0  0  0  0  0  0
   -3.6827    0.4924    3.6700 O   0  0  0  0  0  0  0  0  0  0  0  0
   -1.3405    1.3090    2.2851 O   0  0  0  0  0  0  0  0  0  0  0  0
    2.2652    0.2070   -4.3428 O   0  0  0  0  0  0  0  0  0  0  0  0
   -1.3032    3.8022   -3.5655 H   0  0  0  0  0  0  0  0  0  0  0  0
   -2.3198    2.3601   -3.3339 H   0  0  0  0  0  0  0  0  0  0  0  0
   -1.9657    3.4620   -1.9826 H   0  0  0  0  0  0  0  0  0  0  0  0
    0.7975    2.4981   -4.3959 H   0  0  0  0  0  0  0  0  0  0  0  0
   -0.2445    1.0678   -4.4408 H   0  0  0  0  0  0  0  0  0  0  0  0
    1.7035   -1.0564   -2.0695 H   0  0  0  0  0  0  0  0  0  0  0  0
   -0.9772   -0.6105   -3.1300 H   0  0  0  0  0  0  0  0  0  0  0  0
   -0.7346   -1.2848   -1.5217 H   0  0  0  0  0  0  0  0  0  0  0  0
    2.2519    2.4833   -0.6101 H   0  0  0  0  0  0  0  0  0  0  0  0
    0.9638    1.0076    1.1170 H   0  0  0  0  0  0  0  0  0  0  0  0
    0.6530   -0.6667    0.5798 H   0  0  0  0  0  0  0  0  0  0  0  0
    4.4714   -1.5928    3.6142 H   0  0  0  0  0  0  0  0  0  0  0  0
    6.9100   -2.0252    3.6552 H   0  0  0  0  0  0  0  0  0  0  0  0
    8.2966   -1.5114    1.6574 H   0  0  0  0  0  0  0  0  0  0  0  0
    7.2471   -0.5503   -0.3814 H   0  0  0  0  0  0  0  0  0  0  0  0
    4.8236   -0.1070   -0.4383 H   0  0  0  0  0  0  0  0  0  0  0  0
   -1.4252   -0.5116    0.3956 H   0  0  0  0  0  0  0  0  0  0  0  0
   -3.1408    1.8006    1.4672 H   0  0  0  0  0  0  0  0  0  0  0  0
   -2.5365   -0.9125    2.7798 H   0  0  0  0  0  0  0  0  0  0  0  0
   -5.2201   -0.0283    1.6018 H   0  0  0  0  0  0  0  0  0  0  0  0
   -3.2626   -2.1511    0.5298 H   0  0  0  0  0  0  0  0  0  0  0  0
   -5.8627   -1.0629   -0.6591 H   0  0  0  0  0  0  0  0  0  0  0  0
   -4.8053   -2.2254   -1.4368 H   0  0  0  0  0  0  0  0  0  0  0  0
   -5.2745   -3.7176    0.1311 H   0  0  0  0  0  0  0  0  0  0  0  0
   -5.7744   -2.1220    2.1422 H   0  0  0  0  0  0  0  0  0  0  0  0
   -4.3174   -0.1409    4.0725 H   0  0  0  0  0  0  0  0  0  0  0  0
   -1.5952    1.3965    3.2347 H   0  0  0  0  0  0  0  0  0  0  0  0
    2.5807   -0.6694   -4.0506 H   0  0  0  0  0  0  0  0  0  0  0  0
  2  1  1  6
  2  3  1  0
  3  4  1  0
  4  5  1  0
  5  6  1  0
  6  7  1  0
  7  8  1  0
  8  9  1  0
  9 10  1  0
  9 11  1  0
  8 12  1  1
 12 13  1  0
 13 14  1  0
 14 15  2  0
 14 16  1  0
 16 17  2  0
 17 18  1  0
 18 19  2  0
 19 20  1  0
 20 21  2  0
  7 22  1  1
 22 23  1  0
 23 24  1  0
 24 25  1  0
 25 26  1  0
 26 27  1  0
 27 28  1  0
 27 29  1  0
 29 30  1  0
 26 31  1  0
 25 32  1  0
 24 33  1  0
  4 34  1  6
  7  2  1  0
 10  2  1  0
 11  4  1  0
  8  5  1  0
 21 16  1  0
 28 23  1  0
  1 35  1  0
  1 36  1  0
  1 37  1  0
  3 38  1  0
  3 39  1  0
  5 40  1  1
  6 41  1  0
  6 42  1  0
  9 43  1  1
 12 44  1  0
 12 45  1  0
 17 46  1  0
 18 47  1  0
 19 48  1  0
 20 49  1  0
 21 50  1  0
 23 51  1  1
 24 52  1  6
 25 53  1  1
 26 54  1  6
 27 55  1  1
 29 56  1  0
 29 57  1  0
 30 58  1  0
 31 59  1  0
 32 60  1  0
 33 61  1  0
 34 62  1  0
M  END
$$$$
