
     RDKit          3D

 98105  0  0  0  0  0  0  0  0999 V2000
    1.9107   -0.3729    2.9599 C   0  0  0  0  0  0  0  0  0  0  0  0
    0.4704   -0.8398    2.6668 C   0  0  2  0  0  0  0  0  0  0  0  0
    0.2936   -1.9260    1.5923 C   0  0  2  0  0  0  0  0  0  0  0  0
    0.6250   -1.4007    0.1929 C   0  0  1  0  0  0  0  0  0  0  0  0
   -0.2119   -0.1493   -0.1102 C   0  0  2  0  0  0  0  0  0  0  0  0
   -0.7281    0.6563    1.1299 C   0  0  1  0  0  0  0  0  0  0  0  0
   -0.3508    0.3001    2.4536 O   0  0  0  0  0  0  0  0  0  0  0  0
   -0.4217    2.0476    0.9425 O   0  0  0  0  0  0  0  0  0  0  0  0
   -1.4821    2.8945    0.9682 C   0  0  0  0  0  0  0  0  0  0  0  0
   -2.6554    2.5965    1.1152 O   0  0  0  0  0  0  0  0  0  0  0  0
   -1.0278    4.2929    0.7844 C   0  0  0  0  0  0  0  0  0  0  0  0
   -1.9902    5.2799    0.5127 C   0  0  0  0  0  0  0  0  0  0  0  0
   -1.5762    6.5976    0.3239 C   0  0  0  0  0  0  0  0  0  0  0  0
   -0.2263    6.9340    0.4013 C   0  0  0  0  0  0  0  0  0  0  0  0
    0.7164    5.9546    0.6752 C   0  0  0  0  0  0  0  0  0  0  0  0
    0.3260    4.6397    0.8815 C   0  0  0  0  0  0  0  0  0  0  0  0
    2.0455    6.2755    0.7429 O   0  0  0  0  0  0  0  0  0  0  0  0
    0.1892    8.2242    0.2109 O   0  0  0  0  0  0  0  0  0  0  0  0
   -2.4671    7.5998    0.0521 O   0  0  0  0  0  0  0  0  0  0  0  0
   -1.4103   -0.6929   -0.7758 O   0  0  0  0  0  0  0  0  0  0  0  0
   -2.2294    0.1609   -1.4169 C   0  0  0  0  0  0  0  0  0  0  0  0
   -1.9537    1.3131   -1.7012 O   0  0  0  0  0  0  0  0  0  0  0  0
   -3.5520   -0.4898   -1.7042 C   0  0  0  0  0  0  0  0  0  0  0  0
   -4.2190    0.0281   -2.8297 C   0  0  0  0  0  0  0  0  0  0  0  0
   -5.4935   -0.4109   -3.1553 C   0  0  0  0  0  0  0  0  0  0  0  0
   -6.1359   -1.3474   -2.3639 C   0  0  0  0  0  0  0  0  0  0  0  0
   -5.4999   -1.8463   -1.2309 C   0  0  0  0  0  0  0  0  0  0  0  0
   -4.1932   -1.4713   -0.8912 C   0  0  0  0  0  0  0  0  0  0  0  0
   -3.5767   -2.1284    0.3260 C   0  0  2  0  0  0  0  0  0  0  0  0
   -2.5981   -3.3013   -0.0334 C   0  0  1  0  0  0  0  0  0  0  0  0
   -1.4130   -3.4647    0.9288 C   0  0  0  0  0  0  0  0  0  0  0  0
   -0.6833   -4.4473    0.9452 O   0  0  0  0  0  0  0  0  0  0  0  0
   -1.1136   -2.3048    1.5819 O   0  0  0  0  0  0  0  0  0  0  0  0
   -3.2357   -4.6779   -0.2944 C   0  0  0  0  0  0  0  0  0  0  0  0
   -3.9122   -4.7687   -1.6330 C   0  0  0  0  0  0  0  0  0  0  0  0
   -5.0377   -5.1875   -1.8349 O   0  0  0  0  0  0  0  0  0  0  0  0
   -3.1470   -4.3505   -2.6551 O   0  0  0  0  0  0  0  0  0  0  0  0
   -4.6388   -2.4311    1.3873 C   0  0  1  0  0  0  0  0  0  0  0  0
   -5.8846   -3.1183    0.8394 C   0  0  0  0  0  0  0  0  0  0  0  0
   -6.5617   -3.9106    1.4861 O   0  0  0  0  0  0  0  0  0  0  0  0
   -6.2532   -2.7425   -0.4449 O   0  0  0  0  0  0  0  0  0  0  0  0
   -4.0171   -3.1647    2.4355 O   0  0  0  0  0  0  0  0  0  0  0  0
   -7.3910   -1.7528   -2.7265 O   0  0  0  0  0  0  0  0  0  0  0  0
   -6.1132    0.1067   -4.2567 O   0  0  0  0  0  0  0  0  0  0  0  0
    2.0399   -1.1918    0.0773 O   0  0  0  0  0  0  0  0  0  0  0  0
    2.6682   -1.8089   -0.9556 C   0  0  0  0  0  0  0  0  0  0  0  0
    2.1450   -2.3484   -1.9141 O   0  0  0  0  0  0  0  0  0  0  0  0
    4.0987   -1.9127   -0.6233 C   0  0  0  0  0  0  0  0  0  0  0  0
    4.6098   -3.2227   -0.5474 C   0  0  0  0  0  0  0  0  0  0  0  0
    5.9342   -3.4194   -0.1807 C   0  0  0  0  0  0  0  0  0  0  0  0
    6.7446   -2.3318    0.1068 C   0  0  0  0  0  0  0  0  0  0  0  0
    6.2413   -1.0370    0.0187 C   0  0  0  0  0  0  0  0  0  0  0  0
    4.9089   -0.7909   -0.3589 C   0  0  0  0  0  0  0  0  0  0  0  0
    4.4410    0.5963   -0.5147 C   0  0  0  0  0  0  0  0  0  0  0  0
    4.4826    1.2276   -1.7644 C   0  0  0  0  0  0  0  0  0  0  0  0
    4.1328    2.5655   -1.9023 C   0  0  0  0  0  0  0  0  0  0  0  0
    3.7239    3.3127   -0.8048 C   0  0  0  0  0  0  0  0  0  0  0  0
    3.6363    2.7191    0.4438 C   0  0  0  0  0  0  0  0  0  0  0  0
    3.9751    1.3611    0.5791 C   0  0  0  0  0  0  0  0  0  0  0  0
    3.7132    0.6883    1.8696 C   0  0  0  0  0  0  0  0  0  0  0  0
    4.5468    0.2490    2.6334 O   0  0  0  0  0  0  0  0  0  0  0  0
    2.3649    0.5453    1.9525 O   0  0  0  0  0  0  0  0  0  0  0  0
    3.3903    4.6191   -1.0324 O   0  0  0  0  0  0  0  0  0  0  0  0
    4.1766    3.1381   -3.1431 O   0  0  0  0  0  0  0  0  0  0  0  0
    4.8550    0.5335   -2.8841 O   0  0  0  0  0  0  0  0  0  0  0  0
    7.0841    0.0045    0.3173 O   0  0  0  0  0  0  0  0  0  0  0  0
    8.0509   -2.5131    0.4802 O   0  0  0  0  0  0  0  0  0  0  0  0
    6.4780   -4.6693   -0.0711 O   0  0  0  0  0  0  0  0  0  0  0  0
    2.5773   -1.2411    3.0288 H   0  0  0  0  0  0  0  0  0  0  0  0
    1.9208    0.1766    3.9102 H   0  0  0  0  0  0  0  0  0  0  0  0
    0.0967   -1.2769    3.6029 H   0  0  0  0  0  0  0  0  0  0  0  0
    0.9078   -2.7946    1.8543 H   0  0  0  0  0  0  0  0  0  0  0  0
    0.3346   -2.1788   -0.5238 H   0  0  0  0  0  0  0  0  0  0  0  0
    0.3114    0.4917   -0.8267 H   0  0  0  0  0  0  0  0  0  0  0  0
   -1.8134    0.5225    1.1620 H   0  0  0  0  0  0  0  0  0  0  0  0
   -3.0376    5.0076    0.4327 H   0  0  0  0  0  0  0  0  0  0  0  0
    1.0730    3.8945    1.1240 H   0  0  0  0  0  0  0  0  0  0  0  0
    2.0612    7.2479    0.5982 H   0  0  0  0  0  0  0  0  0  0  0  0
   -0.6363    8.7149    0.0167 H   0  0  0  0  0  0  0  0  0  0  0  0
   -3.3663    7.2342    0.0475 H   0  0  0  0  0  0  0  0  0  0  0  0
   -3.7520    0.7883   -3.4527 H   0  0  0  0  0  0  0  0  0  0  0  0
   -2.9979   -1.3392    0.8094 H   0  0  0  0  0  0  0  0  0  0  0  0
   -2.0857   -3.0124   -0.9645 H   0  0  0  0  0  0  0  0  0  0  0  0
   -2.4806   -5.4759   -0.2930 H   0  0  0  0  0  0  0  0  0  0  0  0
   -3.9491   -4.9616    0.4861 H   0  0  0  0  0  0  0  0  0  0  0  0
   -3.6897   -4.5004   -3.4552 H   0  0  0  0  0  0  0  0  0  0  0  0
   -4.9974   -1.4802    1.8138 H   0  0  0  0  0  0  0  0  0  0  0  0
   -4.3750   -2.8266    3.2849 H   0  0  0  0  0  0  0  0  0  0  0  0
   -7.6385   -2.5017   -2.1506 H   0  0  0  0  0  0  0  0  0  0  0  0
   -7.0129   -0.2803   -4.2495 H   0  0  0  0  0  0  0  0  0  0  0  0
    3.9604   -4.0637   -0.7729 H   0  0  0  0  0  0  0  0  0  0  0  0
    3.2895    3.2861    1.3037 H   0  0  0  0  0  0  0  0  0  0  0  0
    3.0618    5.0340   -0.2095 H   0  0  0  0  0  0  0  0  0  0  0  0
    3.9399    4.0766   -2.9792 H   0  0  0  0  0  0  0  0  0  0  0  0
    4.7770    1.1767   -3.6216 H   0  0  0  0  0  0  0  0  0  0  0  0
    7.9211   -0.4188    0.5978 H   0  0  0  0  0  0  0  0  0  0  0  0
    8.1786   -3.4864    0.4703 H   0  0  0  0  0  0  0  0  0  0  0  0
    5.8042   -5.3310   -0.3139 H   0  0  0  0  0  0  0  0  0  0  0  0
  1  2  1  0
  2  3  1  0
  3  4  1  0
  4  5  1  0
  5  6  1  0
  6  7  1  0
  6  8  1  0
  8  9  1  0
  9 10  2  0
  9 11  1  0
 11 12  2  0
 12 13  1  0
 13 14  2  0
 14 15  1  0
 15 16  2  0
 15 17  1  0
 14 18  1  0
 13 19  1  0
  5 20  1  0
 20 21  1  0
 21 22  2  0
 21 23  1  0
 23 24  2  0
 24 25  1  0
 25 26  2  0
 26 27  1  0
 27 28  2  0
 28 29  1  0
 29 30  1  0
 30 31  1  0
 31 32  2  0
 31 33  1  0
 30 34  1  0
 34 35  1  0
 35 36  2  0
 35 37  1  0
 29 38  1  0
 38 39  1  0
 39 40  2  0
 39 41  1  0
 38 42  1  0
 26 43  1  0
 25 44  1  0
  4 45  1  0
 45 46  1  0
 46 47  2  0
 46 48  1  0
 48 49  2  0
 49 50  1  0
 50 51  2  0
 51 52  1  0
 52 53  2  0
 53 54  1  0
 54 55  2  0
 55 56  1  0
 56 57  2  0
 57 58  1  0
 58 59  2  0
 59 60  1  0
 60 61  2  0
 60 62  1  0
 57 63  1  0
 56 64  1  0
 55 65  1  0
 52 66  1  0
 51 67  1  0
 50 68  1  0
 62  1  1  0
  7  2  1  0
 33  3  1  0
 16 11  1  0
 28 23  1  0
 41 27  1  0
 53 48  1  0
 59 54  1  0
  1 69  1  0
  1 70  1  0
  2 71  1  1
  3 72  1  1
  4 73  1  6
  5 74  1  6
  6 75  1  1
 12 76  1  0
 16 77  1  0
 17 78  1  0
 18 79  1  0
 19 80  1  0
 24 81  1  0
 29 82  1  1
 30 83  1  6
 34 84  1  0
 34 85  1  0
 37 86  1  0
 38 87  1  1
 42 88  1  0
 43 89  1  0
 44 90  1  0
 49 91  1  0
 58 92  1  0
 63 93  1  0
 64 94  1  0
 65 95  1  0
 66 96  1  0
 67 97  1  0
 68 98  1  0
M  END
$$$$
