
     RDKit          3D

 84 84  0  0  0  0  0  0  0  0999 V2000
    0.6280    0.4501   -3.0954 C   0  0  0  0  0  0  0  0  0  0  0  0
    0.9835    0.1956   -1.6252 C   0  0  0  0  0  0  0  0  0  0  0  0
    2.4217   -0.3025   -1.3978 C   0  0  2  0  0  0  0  0  0  0  0  0
    2.6551   -1.6841   -2.0209 C   0  0  0  0  0  0  0  0  0  0  0  0
    2.8061   -0.2549    0.1054 C   0  0  1  0  0  0  0  0  0  0  0  0
    2.0155   -1.2418    0.9776 C   0  0  0  0  0  0  0  0  0  0  0  0
    2.4131   -2.3912    1.1933 O   0  0  0  0  0  0  0  0  0  0  0  0
    0.8130   -0.7684    1.4866 N   0  0  0  0  0  0  0  0  0  0  0  0
    0.0368   -1.6198    2.3763 C   0  0  0  0  0  0  0  0  0  0  0  0
   -1.2839   -1.0533    2.8678 C   0  0  0  0  0  0  0  0  0  0  0  0
   -1.9002   -1.5504    3.8255 O   0  0  0  0  0  0  0  0  0  0  0  0
   -1.8219   -0.0337    2.1169 N   0  0  0  0  0  0  0  0  0  0  0  0
   -3.0971    0.5905    2.4467 C   0  0  1  0  0  0  0  0  0  0  0  0
   -2.8872    1.8647    3.2818 C   0  0  0  0  0  0  0  0  0  0  0  0
   -2.1359    1.6183    4.4738 O   0  0  0  0  0  0  0  0  0  0  0  0
   -3.8808    0.8751    1.1586 C   0  0  0  0  0  0  0  0  0  0  0  0
   -3.3537    0.8672    0.0444 O   0  0  0  0  0  0  0  0  0  0  0  0
   -5.2218    1.1440    1.3656 N   0  0  0  0  0  0  0  0  0  0  0  0
   -6.1250    1.5141    0.2716 C   0  0  1  0  0  0  0  0  0  0  0  0
   -7.5778    1.3719    0.7365 C   0  0  0  0  0  0  0  0  0  0  0  0
   -8.6648    1.5888   -0.3131 C   0  0  0  0  0  0  0  0  0  0  0  0
   -8.5732    0.7130   -1.5648 C   0  0  0  0  0  0  0  0  0  0  0  0
   -8.6011   -0.6919   -1.2082 N   0  0  0  0  0  0  0  0  0  0  0  0
   -9.5156   -1.4909   -1.5979 C   0  0  0  0  0  0  0  0  0  0  0  0
   -9.4520   -2.7960   -1.2590 N   0  0  0  0  0  0  0  0  0  0  0  0
  -10.6371   -1.2722   -2.3330 N   0  0  0  0  0  0  0  0  0  0  0  0
   -5.7940    2.9557   -0.0897 C   0  0  0  0  0  0  0  0  0  0  0  0
   -5.2584    3.8003    0.6216 O   0  0  0  0  0  0  0  0  0  0  0  0
   -6.1393    3.2774   -1.3556 O   0  0  0  0  0  0  0  0  0  0  0  0
    4.2210   -0.5747    0.2808 N   0  0  0  0  0  0  0  0  0  0  0  0
    5.2034    0.3664    0.5191 C   0  0  0  0  0  0  0  0  0  0  0  0
    4.9572    1.5679    0.6442 O   0  0  0  0  0  0  0  0  0  0  0  0
    6.6295   -0.2068    0.5474 C   0  0  1  0  0  0  0  0  0  0  0  0
    7.2423    0.0402   -0.8601 C   0  0  0  0  0  0  0  0  0  0  0  0
    8.6681   -0.4074   -1.0493 C   0  0  0  0  0  0  0  0  0  0  0  0
    8.9883   -1.7584   -1.2797 C   0  0  0  0  0  0  0  0  0  0  0  0
   10.3085   -2.1529   -1.4578 C   0  0  0  0  0  0  0  0  0  0  0  0
   11.3203   -1.1937   -1.4087 C   0  0  0  0  0  0  0  0  0  0  0  0
   11.0283    0.1470   -1.1956 C   0  0  0  0  0  0  0  0  0  0  0  0
    9.7092    0.5377   -1.0156 C   0  0  0  0  0  0  0  0  0  0  0  0
   12.6245   -1.5432   -1.5895 O   0  0  0  0  0  0  0  0  0  0  0  0
    7.3753    0.3878    1.6627 N   0  0  0  0  0  0  0  0  0  0  0  0
   -0.3956    0.8583   -3.1695 H   0  0  0  0  0  0  0  0  0  0  0  0
    0.6607   -0.4679   -3.6862 H   0  0  0  0  0  0  0  0  0  0  0  0
    1.3046    1.1816   -3.5420 H   0  0  0  0  0  0  0  0  0  0  0  0
    0.8297    1.1329   -1.0739 H   0  0  0  0  0  0  0  0  0  0  0  0
    0.2623   -0.5288   -1.2205 H   0  0  0  0  0  0  0  0  0  0  0  0
    3.0991    0.3938   -1.9280 H   0  0  0  0  0  0  0  0  0  0  0  0
    3.6821   -2.0341   -1.8597 H   0  0  0  0  0  0  0  0  0  0  0  0
    2.4979   -1.6794   -3.1093 H   0  0  0  0  0  0  0  0  0  0  0  0
    1.9735   -2.4391   -1.6035 H   0  0  0  0  0  0  0  0  0  0  0  0
    2.6404    0.7578    0.4896 H   0  0  0  0  0  0  0  0  0  0  0  0
    0.7389    0.2399    1.6075 H   0  0  0  0  0  0  0  0  0  0  0  0
    0.6662   -1.8407    3.2480 H   0  0  0  0  0  0  0  0  0  0  0  0
   -0.1718   -2.5483    1.8408 H   0  0  0  0  0  0  0  0  0  0  0  0
   -1.4057    0.1979    1.2141 H   0  0  0  0  0  0  0  0  0  0  0  0
   -3.6874   -0.1276    3.0408 H   0  0  0  0  0  0  0  0  0  0  0  0
   -3.8490    2.3041    3.5873 H   0  0  0  0  0  0  0  0  0  0  0  0
   -2.3513    2.6310    2.7073 H   0  0  0  0  0  0  0  0  0  0  0  0
   -2.3276    0.7055    4.7733 H   0  0  0  0  0  0  0  0  0  0  0  0
   -5.4924    1.4550    2.2957 H   0  0  0  0  0  0  0  0  0  0  0  0
   -5.8856    0.8662   -0.5819 H   0  0  0  0  0  0  0  0  0  0  0  0
   -7.7091    0.3747    1.1903 H   0  0  0  0  0  0  0  0  0  0  0  0
   -7.7686    2.0878    1.5614 H   0  0  0  0  0  0  0  0  0  0  0  0
   -9.6410    1.4046    0.1638 H   0  0  0  0  0  0  0  0  0  0  0  0
   -8.6699    2.6392   -0.6263 H   0  0  0  0  0  0  0  0  0  0  0  0
   -7.6394    0.9139   -2.0927 H   0  0  0  0  0  0  0  0  0  0  0  0
   -9.3637    1.0171   -2.2605 H   0  0  0  0  0  0  0  0  0  0  0  0
   -8.7465   -2.9050   -0.5482 H   0  0  0  0  0  0  0  0  0  0  0  0
  -10.3531   -3.1358   -0.9419 H   0  0  0  0  0  0  0  0  0  0  0  0
  -10.7055   -0.3254   -2.7003 H   0  0  0  0  0  0  0  0  0  0  0  0
  -10.6891   -1.9379   -3.1095 H   0  0  0  0  0  0  0  0  0  0  0  0
   -5.7771    4.1847   -1.4750 H   0  0  0  0  0  0  0  0  0  0  0  0
    4.4280   -1.5395    0.5287 H   0  0  0  0  0  0  0  0  0  0  0  0
    6.5799   -1.2836    0.7339 H   0  0  0  0  0  0  0  0  0  0  0  0
    7.1604    1.1098   -1.1191 H   0  0  0  0  0  0  0  0  0  0  0  0
    6.6128   -0.4704   -1.6130 H   0  0  0  0  0  0  0  0  0  0  0  0
    8.2016   -2.5129   -1.3411 H   0  0  0  0  0  0  0  0  0  0  0  0
   10.5426   -3.1978   -1.6570 H   0  0  0  0  0  0  0  0  0  0  0  0
   11.8328    0.8818   -1.1703 H   0  0  0  0  0  0  0  0  0  0  0  0
    9.4919    1.5912   -0.8564 H   0  0  0  0  0  0  0  0  0  0  0  0
   12.7006   -2.4976   -1.3884 H   0  0  0  0  0  0  0  0  0  0  0  0
    7.2158    1.3988    1.6678 H   0  0  0  0  0  0  0  0  0  0  0  0
    8.3798    0.2585    1.5176 H   0  0  0  0  0  0  0  0  0  0  0  0
  1  2  1  0
  2  3  1  0
  3  4  1  0
  3  5  1  0
  5  6  1  0
  6  7  2  0
  6  8  1  0
  8  9  1  0
  9 10  1  0
 10 11  2  0
 10 12  1  0
 12 13  1  0
 13 14  1  0
 14 15  1  0
 13 16  1  0
 16 17  2  0
 16 18  1  0
 18 19  1  0
 19 20  1  0
 20 21  1  0
 21 22  1  0
 22 23  1  0
 23 24  2  3
 24 25  1  0
 24 26  1  0
 19 27  1  0
 27 28  2  0
 27 29  1  0
  5 30  1  0
 30 31  1  0
 31 32  2  0
 31 33  1  0
 33 34  1  0
 34 35  1  0
 35 36  2  0
 36 37  1  0
 37 38  2  0
 38 39  1  0
 39 40  2  0
 38 41  1  0
 33 42  1  0
 40 35  1  0
  1 43  1  0
  1 44  1  0
  1 45  1  0
  2 46  1  0
  2 47  1  0
  3 48  1  6
  4 49  1  0
  4 50  1  0
  4 51  1  0
  5 52  1  1
  8 53  1  0
  9 54  1  0
  9 55  1  0
 12 56  1  0
 13 57  1  1
 14 58  1  0
 14 59  1  0
 15 60  1  0
 18 61  1  0
 19 62  1  6
 20 63  1  0
 20 64  1  0
 21 65  1  0
 21 66  1  0
 22 67  1  0
 22 68  1  0
 25 69  1  0
 25 70  1  0
 26 71  1  0
 26 72  1  0
 29 73  1  0
 30 74  1  0
 33 75  1  1
 34 76  1  0
 34 77  1  0
 36 78  1  0
 37 79  1  0
 39 80  1  0
 40 81  1  0
 41 82  1  0
 42 83  1  0
 42 84  1  0
M  END
$$$$
