
     RDKit          3D

 63 60  0  0  0  0  0  0  0  0999 V2000
   -1.0558    0.0839    1.5550 C   0  0  0  0  0  0  0  0  0  0  0  0
   -1.8884    0.2281    0.2644 C   0  0  0  0  0  0  0  0  0  0  0  0
   -2.5063   -1.1413   -0.0804 C   0  0  0  0  0  0  0  0  0  0  0  0
   -3.0572    1.2093    0.5226 C   0  0  0  0  0  0  0  0  0  0  0  0
   -2.5926    2.5148    0.8615 O   0  0  0  0  0  0  0  0  0  0  0  0
   -1.0217    0.7622   -0.9177 C   0  0  2  0  0  0  0  0  0  0  0  0
    0.0777   -0.2305   -1.3522 C   0  0  0  0  0  0  0  0  0  0  0  0
   -0.1443   -1.1397   -2.1475 O   0  0  0  0  0  0  0  0  0  0  0  0
    1.2746   -0.0175   -0.7068 N   0  0  0  0  0  0  0  0  0  0  0  0
    2.4821   -0.7761   -1.0032 C   0  0  0  0  0  0  0  0  0  0  0  0
    3.4531   -0.6744    0.1530 C   0  0  0  0  0  0  0  0  0  0  0  0
    4.7714   -1.3980   -0.0952 C   0  0  0  0  0  0  0  0  0  0  0  0
    4.8568   -2.0809   -1.1515 O   0  0  0  0  0  0  0  0  0  0  0  0
    5.6351   -1.2161    0.8118 O   0  0  0  0  0  1  0  0  0  0  0  0
   -0.4215    2.0264   -0.5889 O   0  0  0  0  0  0  0  0  0  0  0  0
   -1.9724    0.2748   -1.6163 C   0  0  0  0  0  0  0  0  0  0  0  0
   -1.8863    0.0423   -0.0949 C   0  0  0  0  0  0  0  0  0  0  0  0
   -3.3308   -0.0549    0.4507 C   0  0  0  0  0  0  0  0  0  0  0  0
   -1.2056    1.2662    0.5499 C   0  0  0  0  0  0  0  0  0  0  0  0
   -0.8991    1.0142    1.9178 O   0  0  0  0  0  0  0  0  0  0  0  0
   -1.1482   -1.2879    0.2314 C   0  0  2  0  0  0  0  0  0  0  0  0
    0.3293   -1.3431   -0.2180 C   0  0  0  0  0  0  0  0  0  0  0  0
    0.6586   -2.0803   -1.1490 O   0  0  0  0  0  0  0  0  0  0  0  0
    1.1898   -0.5564    0.5001 N   0  0  0  0  0  0  0  0  0  0  0  0
    2.6315   -0.5381    0.2891 C   0  0  0  0  0  0  0  0  0  0  0  0
    3.1821    0.8424    0.5760 C   0  0  0  0  0  0  0  0  0  0  0  0
    4.6994    0.9192    0.4562 C   0  0  0  0  0  0  0  0  0  0  0  0
    5.3127   -0.1721    0.3197 O   0  0  0  0  0  0  0  0  0  0  0  0
    5.1636    2.0943    0.5269 O   0  0  0  0  0  1  0  0  0  0  0  0
   -1.8495   -2.3859   -0.3819 O   0  0  0  0  0  0  0  0  0  0  0  0
    0.0000    0.0000    0.0000 Ca  0  0  0  0  0 15  0  0  0  0  0  0
   -0.2927   -0.6952    1.4548 H   0  0  0  0  0  0  0  0  0  0  0  0
   -1.6922   -0.1979    2.4014 H   0  0  0  0  0  0  0  0  0  0  0  0
   -0.5459    1.0147    1.8228 H   0  0  0  0  0  0  0  0  0  0  0  0
   -1.7423   -1.9178   -0.1899 H   0  0  0  0  0  0  0  0  0  0  0  0
   -3.1867   -1.4740    0.7097 H   0  0  0  0  0  0  0  0  0  0  0  0
   -3.0777   -1.0941   -1.0123 H   0  0  0  0  0  0  0  0  0  0  0  0
   -3.7093    0.8585    1.3298 H   0  0  0  0  0  0  0  0  0  0  0  0
   -3.6766    1.3101   -0.3749 H   0  0  0  0  0  0  0  0  0  0  0  0
   -2.3286    2.4890    1.8018 H   0  0  0  0  0  0  0  0  0  0  0  0
   -1.6483    0.9379   -1.8000 H   0  0  0  0  0  0  0  0  0  0  0  0
    1.3884    0.9265   -0.3551 H   0  0  0  0  0  0  0  0  0  0  0  0
    2.9080   -0.3551   -1.9207 H   0  0  0  0  0  0  0  0  0  0  0  0
    2.2054   -1.8159   -1.2101 H   0  0  0  0  0  0  0  0  0  0  0  0
    3.6747    0.3795    0.3614 H   0  0  0  0  0  0  0  0  0  0  0  0
    2.9982   -1.0900    1.0605 H   0  0  0  0  0  0  0  0  0  0  0  0
   -1.1375    2.5738   -0.2043 H   0  0  0  0  0  0  0  0  0  0  0  0
   -2.5011   -0.5406   -2.1213 H   0  0  0  0  0  0  0  0  0  0  0  0
   -0.9761    0.3562   -2.0642 H   0  0  0  0  0  0  0  0  0  0  0  0
   -2.5101    1.2032   -1.8415 H   0  0  0  0  0  0  0  0  0  0  0  0
   -3.8796    0.8791    0.2835 H   0  0  0  0  0  0  0  0  0  0  0  0
   -3.3364   -0.2558    1.5277 H   0  0  0  0  0  0  0  0  0  0  0  0
   -3.8963   -0.8548   -0.0398 H   0  0  0  0  0  0  0  0  0  0  0  0
   -1.8414    2.1578    0.4936 H   0  0  0  0  0  0  0  0  0  0  0  0
   -0.2733    1.5242    0.0373 H   0  0  0  0  0  0  0  0  0  0  0  0
   -1.6791    1.2665    2.4416 H   0  0  0  0  0  0  0  0  0  0  0  0
   -1.1677   -1.4862    1.3094 H   0  0  0  0  0  0  0  0  0  0  0  0
    0.8427   -0.1026    1.3421 H   0  0  0  0  0  0  0  0  0  0  0  0
    2.8544   -0.8504   -0.7359 H   0  0  0  0  0  0  0  0  0  0  0  0
    3.0532   -1.2855    0.9681 H   0  0  0  0  0  0  0  0  0  0  0  0
    2.7369    1.5681   -0.1139 H   0  0  0  0  0  0  0  0  0  0  0  0
    2.9086    1.1552    1.5898 H   0  0  0  0  0  0  0  0  0  0  0  0
   -1.2100   -2.7694   -1.0195 H   0  0  0  0  0  0  0  0  0  0  0  0
  1  2  1  0
  2  3  1  0
  2  4  1  0
  4  5  1  0
  2  6  1  0
  6  7  1  0
  7  8  2  0
  7  9  1  0
  9 10  1  0
 10 11  1  0
 11 12  1  0
 12 13  2  0
 12 14  1  0
  6 15  1  0
 16 17  1  0
 17 18  1  0
 17 19  1  0
 19 20  1  0
 17 21  1  0
 21 22  1  0
 22 23  2  0
 22 24  1  0
 24 25  1  0
 25 26  1  0
 26 27  1  0
 27 28  2  0
 27 29  1  0
 21 30  1  0
  1 32  1  0
  1 33  1  0
  1 34  1  0
  3 35  1  0
  3 36  1  0
  3 37  1  0
  4 38  1  0
  4 39  1  0
  5 40  1  0
  6 41  1  6
  9 42  1  0
 10 43  1  0
 10 44  1  0
 11 45  1  0
 11 46  1  0
 15 47  1  0
 16 48  1  0
 16 49  1  0
 16 50  1  0
 18 51  1  0
 18 52  1  0
 18 53  1  0
 19 54  1  0
 19 55  1  0
 20 56  1  0
 21 57  1  1
 24 58  1  0
 25 59  1  0
 25 60  1  0
 26 61  1  0
 26 62  1  0
 30 63  1  0
M  CHG  3  14  -1  29  -1  31   2
M  END
$$$$
