
     RDKit          3D

 50 50  0  0  0  0  0  0  0  0999 V2000
   -2.7068    2.4636    0.0647 C   0  0  0  0  0  0  0  0  0  0  0  0
   -3.4709    1.1684    0.2074 C   0  0  0  0  0  0  0  0  0  0  0  0
   -2.9272   -0.0328    0.5228 C   0  0  0  0  0  0  0  0  0  0  0  0
   -3.8859   -1.2349    0.8058 C   0  0  0  0  0  0  0  0  0  0  0  0
   -5.0060   -1.2333   -0.2530 C   0  0  0  0  0  0  0  0  0  0  0  0
   -5.7388    0.0979   -0.4156 C   0  0  0  0  0  0  0  0  0  0  0  0
   -4.9619    1.3328    0.0388 C   0  0  0  0  0  0  0  0  0  0  0  0
   -3.2273   -2.6345    0.6965 C   0  0  0  0  0  0  0  0  0  0  0  0
   -4.4701   -1.0936    2.2377 C   0  0  0  0  0  0  0  0  0  0  0  0
   -1.5043   -0.2924    0.7282 C   0  0  0  0  0  0  0  0  0  0  0  0
   -0.4549    0.1819    0.0223 C   0  0  0  0  0  0  0  0  0  0  0  0
    0.9390   -0.2708    0.1956 C   0  0  0  0  0  0  0  0  0  0  0  0
    1.9554    0.5465   -0.1717 C   0  0  0  0  0  0  0  0  0  0  0  0
    3.3813    0.2373   -0.0868 C   0  0  0  0  0  0  0  0  0  0  0  0
    4.3674    1.0613   -0.4875 C   0  0  0  0  0  0  0  0  0  0  0  0
    5.8205    0.7822   -0.4905 C   0  0  0  0  0  0  0  0  0  0  0  0
    6.6621    1.7869   -0.8441 C   0  0  0  0  0  0  0  0  0  0  0  0
    8.1408    1.8127   -0.9378 C   0  0  0  0  0  0  0  0  0  0  0  0
    8.7772    2.7974   -1.2691 O   0  0  0  0  0  0  0  0  0  0  0  0
    8.7520    0.6654   -0.6444 O   0  0  0  0  0  0  0  0  0  0  0  0
    6.3118   -0.5979   -0.1163 C   0  0  0  0  0  0  0  0  0  0  0  0
    1.1225   -1.6758    0.7078 C   0  0  0  0  0  0  0  0  0  0  0  0
   -3.3483    3.3274    0.3139 H   0  0  0  0  0  0  0  0  0  0  0  0
   -2.3852    2.5800   -0.9807 H   0  0  0  0  0  0  0  0  0  0  0  0
   -1.8337    2.5111    0.7260 H   0  0  0  0  0  0  0  0  0  0  0  0
   -5.7431   -2.0156   -0.0387 H   0  0  0  0  0  0  0  0  0  0  0  0
   -4.5739   -1.4963   -1.2332 H   0  0  0  0  0  0  0  0  0  0  0  0
   -5.9885    0.2075   -1.4920 H   0  0  0  0  0  0  0  0  0  0  0  0
   -6.7092    0.0557    0.1020 H   0  0  0  0  0  0  0  0  0  0  0  0
   -5.1825    2.1384   -0.6801 H   0  0  0  0  0  0  0  0  0  0  0  0
   -5.3855    1.6675    1.0028 H   0  0  0  0  0  0  0  0  0  0  0  0
   -3.9655   -3.4353    0.8022 H   0  0  0  0  0  0  0  0  0  0  0  0
   -2.7346   -2.7846   -0.2698 H   0  0  0  0  0  0  0  0  0  0  0  0
   -2.4750   -2.8184    1.4695 H   0  0  0  0  0  0  0  0  0  0  0  0
   -4.2575   -1.9686    2.8669 H   0  0  0  0  0  0  0  0  0  0  0  0
   -5.5614   -0.9731    2.2123 H   0  0  0  0  0  0  0  0  0  0  0  0
   -4.0728   -0.2170    2.7699 H   0  0  0  0  0  0  0  0  0  0  0  0
   -1.2962   -0.9951    1.5403 H   0  0  0  0  0  0  0  0  0  0  0  0
   -0.6109    0.9151   -0.7738 H   0  0  0  0  0  0  0  0  0  0  0  0
    1.7263    1.5457   -0.5559 H   0  0  0  0  0  0  0  0  0  0  0  0
    3.6264   -0.7282    0.3246 H   0  0  0  0  0  0  0  0  0  0  0  0
    4.0888    2.0538   -0.8668 H   0  0  0  0  0  0  0  0  0  0  0  0
    6.2576    2.7627   -1.1137 H   0  0  0  0  0  0  0  0  0  0  0  0
    9.6999    0.8794   -0.7625 H   0  0  0  0  0  0  0  0  0  0  0  0
    6.9512   -0.5455    0.7782 H   0  0  0  0  0  0  0  0  0  0  0  0
    6.8820   -1.0227   -0.9544 H   0  0  0  0  0  0  0  0  0  0  0  0
    5.5354   -1.3341    0.1032 H   0  0  0  0  0  0  0  0  0  0  0  0
    2.1300   -2.0815    0.5683 H   0  0  0  0  0  0  0  0  0  0  0  0
    0.8960   -1.7306    1.7774 H   0  0  0  0  0  0  0  0  0  0  0  0
    0.4540   -2.3662    0.1781 H   0  0  0  0  0  0  0  0  0  0  0  0
  1  2  1  0
  2  3  2  0
  3  4  1  0
  4  5  1  0
  5  6  1  0
  6  7  1  0
  4  8  1  0
  4  9  1  0
  3 10  1  0
 10 11  2  0
 11 12  1  0
 12 13  2  0
 13 14  1  0
 14 15  2  0
 15 16  1  0
 16 17  2  0
 17 18  1  0
 18 19  2  0
 18 20  1  0
 16 21  1  0
 12 22  1  0
  7  2  1  0
  1 23  1  0
  1 24  1  0
  1 25  1  0
  5 26  1  0
  5 27  1  0
  6 28  1  0
  6 29  1  0
  7 30  1  0
  7 31  1  0
  8 32  1  0
  8 33  1  0
  8 34  1  0
  9 35  1  0
  9 36  1  0
  9 37  1  0
 10 38  1  0
 11 39  1  0
 13 40  1  0
 14 41  1  0
 15 42  1  0
 17 43  1  0
 20 44  1  0
 21 45  1  0
 21 46  1  0
 21 47  1  0
 22 48  1  0
 22 49  1  0
 22 50  1  0
M  END
$$$$
