
     RDKit          3D

 48 51  0  0  0  0  0  0  0  0999 V2000
    5.4276    2.0537   -2.2420 C   0  0  0  0  0  0  0  0  0  0  0  0
    4.5128    1.2382   -1.4126 C   0  0  0  0  0  0  0  0  0  0  0  0
    4.7165    0.3512   -0.3652 C   0  0  0  0  0  0  0  0  0  0  0  0
    3.4070   -0.0874    0.0272 C   0  0  0  0  0  0  0  0  0  0  0  0
    2.5190    0.5405   -0.8410 C   0  0  0  0  0  0  0  0  0  0  0  0
    3.1898    1.3355   -1.7137 O   0  0  0  0  0  0  0  0  0  0  0  0
    1.1360    0.3799   -0.8134 C   0  0  0  0  0  0  0  0  0  0  0  0
    0.6350   -0.4548    0.1892 C   0  0  0  0  0  0  0  0  0  0  0  0
    1.4786   -1.1116    1.0858 C   0  0  0  0  0  0  0  0  0  0  0  0
    2.8676   -0.9268    1.0260 C   0  0  0  0  0  0  0  0  0  0  0  0
   -0.7142   -0.7116    0.2690 O   0  0  0  0  0  0  0  0  0  0  0  0
   -1.5265    0.3424    0.6894 C   0  0  0  0  0  0  0  0  0  0  0  0
   -0.9641    1.3677    1.3584 N   0  0  0  0  0  0  0  0  0  0  0  0
   -1.8074    2.3236    1.7490 C   0  0  0  0  0  0  0  0  0  0  0  0
   -3.1320    2.3388    1.5456 N   0  0  0  0  0  0  0  0  0  0  0  0
   -3.6638    1.2988    0.8899 C   0  0  0  0  0  0  0  0  0  0  0  0
   -5.0343    1.2751    0.6659 C   0  0  0  0  0  0  0  0  0  0  0  0
   -5.6582    0.2190   -0.0108 C   0  0  0  0  0  0  0  0  0  0  0  0
   -4.8846   -0.8541   -0.4838 C   0  0  0  0  0  0  0  0  0  0  0  0
   -3.5069   -0.8438   -0.2656 C   0  0  0  0  0  0  0  0  0  0  0  0
   -2.8940    0.2324    0.4215 C   0  0  0  0  0  0  0  0  0  0  0  0
   -5.5628   -1.8509   -1.1364 O   0  0  0  0  0  0  0  0  0  0  0  0
   -4.8086   -2.9370   -1.6559 C   0  0  0  0  0  0  0  0  0  0  0  0
   -7.0067    0.1452   -0.2581 O   0  0  0  0  0  0  0  0  0  0  0  0
   -7.8240    1.2100    0.2074 C   0  0  0  0  0  0  0  0  0  0  0  0
    6.0281    0.0166    0.1676 C   0  0  0  0  0  0  0  0  0  0  0  0
    6.9924    0.7683    0.0660 O   0  0  0  0  0  0  0  0  0  0  0  0
    6.1157   -1.2328    0.7454 N   0  0  0  0  0  0  0  0  0  0  0  0
    7.3859   -1.7503    1.1853 C   0  0  0  0  0  0  0  0  0  0  0  0
    6.2284    1.4333   -2.6563 H   0  0  0  0  0  0  0  0  0  0  0  0
    5.8785    2.8497   -1.6415 H   0  0  0  0  0  0  0  0  0  0  0  0
    4.8966    2.5192   -3.0785 H   0  0  0  0  0  0  0  0  0  0  0  0
    0.4959    0.8897   -1.5212 H   0  0  0  0  0  0  0  0  0  0  0  0
    1.0543   -1.7567    1.8513 H   0  0  0  0  0  0  0  0  0  0  0  0
    3.5025   -1.4150    1.7590 H   0  0  0  0  0  0  0  0  0  0  0  0
   -1.3832    3.1675    2.2826 H   0  0  0  0  0  0  0  0  0  0  0  0
   -5.6065    2.1176    1.0414 H   0  0  0  0  0  0  0  0  0  0  0  0
   -2.8798   -1.6570   -0.6168 H   0  0  0  0  0  0  0  0  0  0  0  0
   -5.5045   -3.6208   -2.1514 H   0  0  0  0  0  0  0  0  0  0  0  0
   -4.0881   -2.5949   -2.4060 H   0  0  0  0  0  0  0  0  0  0  0  0
   -4.3121   -3.4919   -0.8533 H   0  0  0  0  0  0  0  0  0  0  0  0
   -8.8577    0.9852   -0.0730 H   0  0  0  0  0  0  0  0  0  0  0  0
   -7.7855    1.2891    1.2988 H   0  0  0  0  0  0  0  0  0  0  0  0
   -7.5488    2.1565   -0.2694 H   0  0  0  0  0  0  0  0  0  0  0  0
    5.3801   -1.8937    0.5376 H   0  0  0  0  0  0  0  0  0  0  0  0
    7.2048   -2.6121    1.8317 H   0  0  0  0  0  0  0  0  0  0  0  0
    7.9625   -2.0587    0.3090 H   0  0  0  0  0  0  0  0  0  0  0  0
    7.9387   -0.9825    1.7334 H   0  0  0  0  0  0  0  0  0  0  0  0
  1  2  1  0
  2  3  2  0
  3  4  1  0
  4  5  2  0
  5  6  1  0
  5  7  1  0
  7  8  2  0
  8  9  1  0
  9 10  2  0
  8 11  1  0
 11 12  1  0
 12 13  2  0
 13 14  1  0
 14 15  2  0
 15 16  1  0
 16 17  2  0
 17 18  1  0
 18 19  2  0
 19 20  1  0
 20 21  2  0
 19 22  1  0
 22 23  1  0
 18 24  1  0
 24 25  1  0
  3 26  1  0
 26 27  2  0
 26 28  1  0
 28 29  1  0
  6  2  1  0
 10  4  1  0
 21 12  1  0
 21 16  1  0
  1 30  1  0
  1 31  1  0
  1 32  1  0
  7 33  1  0
  9 34  1  0
 10 35  1  0
 14 36  1  0
 17 37  1  0
 20 38  1  0
 23 39  1  0
 23 40  1  0
 23 41  1  0
 25 42  1  0
 25 43  1  0
 25 44  1  0
 28 45  1  0
 29 46  1  0
 29 47  1  0
 29 48  1  0
M  END
$$$$
