
     RDKit          3D

 29 30  0  0  0  0  0  0  0  0999 V2000
   -6.1220   -0.4910   -0.3871 O   0  0  0  0  0  0  0  0  0  0  0  0
   -4.7838   -0.3105   -0.2105 C   0  0  0  0  0  0  0  0  0  0  0  0
   -3.9070   -1.0408   -1.0064 C   0  0  0  0  0  0  0  0  0  0  0  0
   -2.5230   -0.8710   -0.8597 C   0  0  0  0  0  0  0  0  0  0  0  0
   -2.0055    0.0194    0.0951 C   0  0  0  0  0  0  0  0  0  0  0  0
   -0.5573    0.1967    0.3425 C   0  0  0  0  0  0  0  0  0  0  0  0
    0.4301   -0.1953   -0.4832 C   0  0  0  0  0  0  0  0  0  0  0  0
    1.8823   -0.0279   -0.2499 C   0  0  0  0  0  0  0  0  0  0  0  0
    2.7725   -0.6554   -1.1350 C   0  0  0  0  0  0  0  0  0  0  0  0
    4.1545   -0.5512   -0.9544 C   0  0  0  0  0  0  0  0  0  0  0  0
    5.0282   -1.1669   -1.8013 O   0  0  0  0  0  0  0  0  0  0  0  0
    4.6766    0.1804    0.1032 C   0  0  0  0  0  0  0  0  0  0  0  0
    3.7983    0.8324    0.9728 C   0  0  0  0  0  0  0  0  0  0  0  0
    4.3490    1.5756    1.9810 O   0  0  0  0  0  0  0  0  0  0  0  0
    2.4192    0.7281    0.8054 C   0  0  0  0  0  0  0  0  0  0  0  0
   -2.9085    0.7482    0.8908 C   0  0  0  0  0  0  0  0  0  0  0  0
   -4.2972    0.5938    0.7334 C   0  0  0  0  0  0  0  0  0  0  0  0
   -6.6040    0.1810    0.1372 H   0  0  0  0  0  0  0  0  0  0  0  0
   -4.3022   -1.7424   -1.7356 H   0  0  0  0  0  0  0  0  0  0  0  0
   -1.8679   -1.4845   -1.4724 H   0  0  0  0  0  0  0  0  0  0  0  0
   -0.3350    0.7069    1.2783 H   0  0  0  0  0  0  0  0  0  0  0  0
    0.1784   -0.6912   -1.4223 H   0  0  0  0  0  0  0  0  0  0  0  0
    2.3838   -1.2569   -1.9507 H   0  0  0  0  0  0  0  0  0  0  0  0
    4.5411   -1.4022   -2.6216 H   0  0  0  0  0  0  0  0  0  0  0  0
    5.7454    0.2678    0.2379 H   0  0  0  0  0  0  0  0  0  0  0  0
    3.6162    2.0044    2.4530 H   0  0  0  0  0  0  0  0  0  0  0  0
    1.7633    1.2552    1.4940 H   0  0  0  0  0  0  0  0  0  0  0  0
   -2.5517    1.4461    1.6448 H   0  0  0  0  0  0  0  0  0  0  0  0
   -4.9735    1.1511    1.3789 H   0  0  0  0  0  0  0  0  0  0  0  0
  1  2  1  0
  2  3  2  0
  3  4  1  0
  4  5  2  0
  5  6  1  0
  6  7  2  0
  7  8  1  0
  8  9  2  0
  9 10  1  0
 10 11  1  0
 10 12  2  0
 12 13  1  0
 13 14  1  0
 13 15  2  0
  5 16  1  0
 16 17  2  0
 17  2  1  0
 15  8  1  0
  1 18  1  0
  3 19  1  0
  4 20  1  0
  6 21  1  0
  7 22  1  0
  9 23  1  0
 11 24  1  0
 12 25  1  0
 14 26  1  0
 15 27  1  0
 16 28  1  0
 17 29  1  0
M  END
$$$$
