
     RDKit          3D

 51 51  0  0  0  0  0  0  0  0999 V2000
   -3.9202    2.6353    1.2290 C   0  0  0  0  0  0  0  0  0  0  0  0
   -4.1546    1.2274    0.7115 C   0  0  0  0  0  0  0  0  0  0  0  0
   -3.1694    0.3200    0.4631 C   0  0  0  0  0  0  0  0  0  0  0  0
   -3.5252   -1.1360    0.0361 C   0  0  0  0  0  0  0  0  0  0  0  0
   -5.0376   -1.4415    0.2567 C   0  0  0  0  0  0  0  0  0  0  0  0
   -5.9271   -0.3262   -0.2694 C   0  0  0  0  0  0  0  0  0  0  0  0
   -5.6228    0.9610    0.4763 C   0  0  0  0  0  0  0  0  0  0  0  0
   -2.7670   -2.1923    0.9117 C   0  0  0  0  0  0  0  0  0  0  0  0
   -3.2007   -1.3506   -1.4825 C   0  0  0  0  0  0  0  0  0  0  0  0
   -1.7545    0.7242    0.5728 C   0  0  0  0  0  0  0  0  0  0  0  0
   -0.6511    0.1005    0.1169 C   0  0  0  0  0  0  0  0  0  0  0  0
    0.7205    0.6210    0.1718 C   0  0  0  0  0  0  0  0  0  0  0  0
    1.7398   -0.2059   -0.1396 C   0  0  0  0  0  0  0  0  0  0  0  0
    3.1639    0.1118   -0.1149 C   0  0  0  0  0  0  0  0  0  0  0  0
    4.1165   -0.7615   -0.4926 C   0  0  0  0  0  0  0  0  0  0  0  0
    5.5722   -0.5707   -0.4691 C   0  0  0  0  0  0  0  0  0  0  0  0
    6.3403   -1.6192   -0.8555 C   0  0  0  0  0  0  0  0  0  0  0  0
    7.8332   -1.7838   -0.9347 C   0  0  0  0  0  0  0  0  0  0  0  0
    8.5578   -0.5820   -0.7394 O   0  0  0  0  0  0  0  0  0  0  0  0
    6.1648    0.7305    0.0015 C   0  0  0  0  0  0  0  0  0  0  0  0
    0.9160    2.0847    0.5367 C   0  0  0  0  0  0  0  0  0  0  0  0
   -3.2259    2.6474    2.0703 H   0  0  0  0  0  0  0  0  0  0  0  0
   -4.8464    3.0805    1.6056 H   0  0  0  0  0  0  0  0  0  0  0  0
   -3.5524    3.2826    0.4291 H   0  0  0  0  0  0  0  0  0  0  0  0
   -5.3138   -2.3988   -0.2230 H   0  0  0  0  0  0  0  0  0  0  0  0
   -5.2533   -1.5822    1.3331 H   0  0  0  0  0  0  0  0  0  0  0  0
   -5.7616   -0.1841   -1.3439 H   0  0  0  0  0  0  0  0  0  0  0  0
   -6.9823   -0.5945   -0.1553 H   0  0  0  0  0  0  0  0  0  0  0  0
   -6.1374    0.9341    1.4473 H   0  0  0  0  0  0  0  0  0  0  0  0
   -6.0634    1.7850   -0.0945 H   0  0  0  0  0  0  0  0  0  0  0  0
   -2.3808   -1.7496    1.8491 H   0  0  0  0  0  0  0  0  0  0  0  0
   -3.4250   -3.0303    1.2235 H   0  0  0  0  0  0  0  0  0  0  0  0
   -1.9054   -2.6546    0.3912 H   0  0  0  0  0  0  0  0  0  0  0  0
   -2.7446   -0.4613   -1.9369 H   0  0  0  0  0  0  0  0  0  0  0  0
   -2.5069   -2.1877   -1.6401 H   0  0  0  0  0  0  0  0  0  0  0  0
   -4.1031   -1.5748   -2.0720 H   0  0  0  0  0  0  0  0  0  0  0  0
   -1.6047    1.6857    1.0574 H   0  0  0  0  0  0  0  0  0  0  0  0
   -0.7357   -0.8683   -0.3727 H   0  0  0  0  0  0  0  0  0  0  0  0
    1.5154   -1.2354   -0.4160 H   0  0  0  0  0  0  0  0  0  0  0  0
    3.4297    1.1056    0.2569 H   0  0  0  0  0  0  0  0  0  0  0  0
    3.7739   -1.7454   -0.8448 H   0  0  0  0  0  0  0  0  0  0  0  0
    5.8438   -2.5412   -1.1556 H   0  0  0  0  0  0  0  0  0  0  0  0
    8.1071   -2.1975   -1.9119 H   0  0  0  0  0  0  0  0  0  0  0  0
    8.1581   -2.5015   -0.1707 H   0  0  0  0  0  0  0  0  0  0  0  0
    8.4521   -0.0654   -1.5611 H   0  0  0  0  0  0  0  0  0  0  0  0
    5.4414    1.4277    0.4335 H   0  0  0  0  0  0  0  0  0  0  0  0
    6.9045    0.5398    0.7885 H   0  0  0  0  0  0  0  0  0  0  0  0
    6.6355    1.2488   -0.8465 H   0  0  0  0  0  0  0  0  0  0  0  0
    1.8314    2.5108    0.0987 H   0  0  0  0  0  0  0  0  0  0  0  0
    0.9566    2.2051    1.6346 H   0  0  0  0  0  0  0  0  0  0  0  0
    0.0982    2.7145    0.1400 H   0  0  0  0  0  0  0  0  0  0  0  0
  1  2  1  0
  2  3  2  0
  3  4  1  0
  4  5  1  0
  5  6  1  0
  6  7  1  0
  4  8  1  0
  4  9  1  0
  3 10  1  0
 10 11  2  0
 11 12  1  0
 12 13  2  0
 13 14  1  0
 14 15  2  0
 15 16  1  0
 16 17  2  0
 17 18  1  0
 18 19  1  0
 16 20  1  0
 12 21  1  0
  7  2  1  0
  1 22  1  0
  1 23  1  0
  1 24  1  0
  5 25  1  0
  5 26  1  0
  6 27  1  0
  6 28  1  0
  7 29  1  0
  7 30  1  0
  8 31  1  0
  8 32  1  0
  8 33  1  0
  9 34  1  0
  9 35  1  0
  9 36  1  0
 10 37  1  0
 11 38  1  0
 13 39  1  0
 14 40  1  0
 15 41  1  0
 17 42  1  0
 18 43  1  0
 18 44  1  0
 19 45  1  0
 20 46  1  0
 20 47  1  0
 20 48  1  0
 21 49  1  0
 21 50  1  0
 21 51  1  0
M  END
$$$$
