
     RDKit          3D

 54 53  0  0  0  0  0  0  0  0999 V2000
    8.7586   -0.4820   -0.5329 C   0  0  0  0  0  0  0  0  0  0  0  0
    8.2853    0.6745    0.3382 C   0  0  0  0  0  0  0  0  0  0  0  0
    6.9930    0.3757    1.1089 C   0  0  0  0  0  0  0  0  0  0  0  0
    5.8034    0.0911    0.1881 C   0  0  0  0  0  0  0  0  0  0  0  0
    4.5189   -0.1792    0.9765 C   0  0  0  0  0  0  0  0  0  0  0  0
    3.3799   -0.5079    0.0117 C   0  0  0  0  0  0  0  0  0  0  0  0
    2.0657   -0.8040    0.7384 C   0  0  0  0  0  0  0  0  0  0  0  0
    0.9472   -1.2428   -0.2173 C   0  0  0  0  0  0  0  0  0  0  0  0
    0.5852   -0.1855   -1.2278 C   0  0  0  0  0  0  0  0  0  0  0  0
   -0.5438    0.5375   -1.2854 C   0  0  0  0  0  0  0  0  0  0  0  0
   -1.7117    0.4729   -0.3429 C   0  0  0  0  0  0  0  0  0  0  0  0
   -2.9352   -0.1267   -1.0436 C   0  0  0  0  0  0  0  0  0  0  0  0
   -4.0628   -0.4990   -0.0753 C   0  0  0  0  0  0  0  0  0  0  0  0
   -4.6663    0.7068    0.6490 C   0  0  0  0  0  0  0  0  0  0  0  0
   -5.8080    0.3234    1.5972 C   0  0  0  0  0  0  0  0  0  0  0  0
   -7.2220    0.4247    1.0102 C   0  0  0  0  0  0  0  0  0  0  0  0
   -7.5789   -0.6443   -0.0229 C   0  0  0  0  0  0  0  0  0  0  0  0
   -7.2866   -0.2353   -1.4427 C   0  0  0  0  0  0  0  0  0  0  0  0
   -6.9692    0.8682   -1.8520 O   0  0  0  0  0  0  0  0  0  0  0  0
   -7.4337   -1.2651   -2.2991 O   0  0  0  0  0  0  0  0  0  0  0  0
    9.7531   -0.2657   -0.9374 H   0  0  0  0  0  0  0  0  0  0  0  0
    8.0873   -0.6448   -1.3814 H   0  0  0  0  0  0  0  0  0  0  0  0
    8.8176   -1.4125    0.0440 H   0  0  0  0  0  0  0  0  0  0  0  0
    8.1477    1.5658   -0.2872 H   0  0  0  0  0  0  0  0  0  0  0  0
    9.0715    0.9135    1.0639 H   0  0  0  0  0  0  0  0  0  0  0  0
    7.1562   -0.4804    1.7791 H   0  0  0  0  0  0  0  0  0  0  0  0
    6.7598    1.2395    1.7461 H   0  0  0  0  0  0  0  0  0  0  0  0
    5.6502    0.9474   -0.4834 H   0  0  0  0  0  0  0  0  0  0  0  0
    6.0153   -0.7828   -0.4413 H   0  0  0  0  0  0  0  0  0  0  0  0
    4.6766   -1.0175    1.6664 H   0  0  0  0  0  0  0  0  0  0  0  0
    4.2589    0.6997    1.5796 H   0  0  0  0  0  0  0  0  0  0  0  0
    3.6589   -1.3794   -0.5965 H   0  0  0  0  0  0  0  0  0  0  0  0
    3.2491    0.3362   -0.6758 H   0  0  0  0  0  0  0  0  0  0  0  0
    2.2303   -1.6075    1.4672 H   0  0  0  0  0  0  0  0  0  0  0  0
    1.7473    0.0790    1.3085 H   0  0  0  0  0  0  0  0  0  0  0  0
    1.2607   -2.1432   -0.7601 H   0  0  0  0  0  0  0  0  0  0  0  0
    0.0781   -1.5448    0.3758 H   0  0  0  0  0  0  0  0  0  0  0  0
    1.3275   -0.0131   -2.0059 H   0  0  0  0  0  0  0  0  0  0  0  0
   -0.6432    1.2562   -2.1002 H   0  0  0  0  0  0  0  0  0  0  0  0
   -1.9313    1.4924   -0.0041 H   0  0  0  0  0  0  0  0  0  0  0  0
   -1.4725   -0.1034    0.5558 H   0  0  0  0  0  0  0  0  0  0  0  0
   -3.3144    0.5738   -1.8009 H   0  0  0  0  0  0  0  0  0  0  0  0
   -2.6409   -1.0384   -1.5832 H   0  0  0  0  0  0  0  0  0  0  0  0
   -3.6825   -1.2181    0.6620 H   0  0  0  0  0  0  0  0  0  0  0  0
   -4.8365   -1.0198   -0.6456 H   0  0  0  0  0  0  0  0  0  0  0  0
   -3.8812    1.1710    1.2585 H   0  0  0  0  0  0  0  0  0  0  0  0
   -4.9949    1.4701   -0.0649 H   0  0  0  0  0  0  0  0  0  0  0  0
   -5.7743    1.0161    2.4491 H   0  0  0  0  0  0  0  0  0  0  0  0
   -5.6460   -0.6758    2.0169 H   0  0  0  0  0  0  0  0  0  0  0  0
   -7.9187    0.3085    1.8510 H   0  0  0  0  0  0  0  0  0  0  0  0
   -7.3881    1.4327    0.6128 H   0  0  0  0  0  0  0  0  0  0  0  0
   -7.0622   -1.5829    0.2002 H   0  0  0  0  0  0  0  0  0  0  0  0
   -8.6588   -0.8304    0.0254 H   0  0  0  0  0  0  0  0  0  0  0  0
   -7.2196   -0.8712   -3.1704 H   0  0  0  0  0  0  0  0  0  0  0  0
  1  2  1  0
  2  3  1  0
  3  4  1  0
  4  5  1  0
  5  6  1  0
  6  7  1  0
  7  8  1  0
  8  9  1  0
  9 10  2  0
 10 11  1  0
 11 12  1  0
 12 13  1  0
 13 14  1  0
 14 15  1  0
 15 16  1  0
 16 17  1  0
 17 18  1  0
 18 19  2  0
 18 20  1  0
  1 21  1  0
  1 22  1  0
  1 23  1  0
  2 24  1  0
  2 25  1  0
  3 26  1  0
  3 27  1  0
  4 28  1  0
  4 29  1  0
  5 30  1  0
  5 31  1  0
  6 32  1  0
  6 33  1  0
  7 34  1  0
  7 35  1  0
  8 36  1  0
  8 37  1  0
  9 38  1  0
 10 39  1  0
 11 40  1  0
 11 41  1  0
 12 42  1  0
 12 43  1  0
 13 44  1  0
 13 45  1  0
 14 46  1  0
 14 47  1  0
 15 48  1  0
 15 49  1  0
 16 50  1  0
 16 51  1  0
 17 52  1  0
 17 53  1  0
 20 54  1  0
M  END
$$$$
