
     RDKit          3D

 48 47  0  0  0  0  0  0  0  0999 V2000
   -6.4045   -0.5616    1.2028 C   0  0  0  0  0  0  0  0  0  0  0  0
   -6.6349    0.7507    0.4722 C   0  0  0  0  0  0  0  0  0  0  0  0
   -5.5341    1.1449   -0.5173 C   0  0  0  0  0  0  0  0  0  0  0  0
   -4.2346    1.6815    0.0932 C   0  0  0  0  0  0  0  0  0  0  0  0
   -3.2934    0.6699    0.7538 C   0  0  0  0  0  0  0  0  0  0  0  0
   -2.9131   -0.5063   -0.1490 C   0  0  0  0  0  0  0  0  0  0  0  0
   -1.9946   -1.4620    0.5596 C   0  0  0  0  0  0  0  0  0  0  0  0
   -0.7325   -1.7898    0.2338 C   0  0  0  0  0  0  0  0  0  0  0  0
    0.0794   -1.2805   -0.9250 C   0  0  0  0  0  0  0  0  0  0  0  0
    1.1784   -0.2944   -0.5096 C   0  0  0  0  0  0  0  0  0  0  0  0
    2.2933   -0.9487    0.3117 C   0  0  0  0  0  0  0  0  0  0  0  0
    3.4086    0.0191    0.7277 C   0  0  0  0  0  0  0  0  0  0  0  0
    4.1850    0.5929   -0.4606 C   0  0  0  0  0  0  0  0  0  0  0  0
    5.4041    1.4373   -0.0641 C   0  0  0  0  0  0  0  0  0  0  0  0
    6.5037    0.6989    0.7016 C   0  0  0  0  0  0  0  0  0  0  0  0
    7.1313   -0.4242   -0.0797 C   0  0  0  0  0  0  0  0  0  0  0  0
    7.0369   -0.6438   -1.2767 O   0  0  0  0  0  0  0  0  0  0  0  0
    7.8826   -1.2207    0.7069 O   0  0  0  0  0  0  0  0  0  0  0  0
   -6.0803   -1.3511    0.5168 H   0  0  0  0  0  0  0  0  0  0  0  0
   -7.3353   -0.8921    1.6791 H   0  0  0  0  0  0  0  0  0  0  0  0
   -5.6605   -0.4559    1.9964 H   0  0  0  0  0  0  0  0  0  0  0  0
   -7.5676    0.6478   -0.0989 H   0  0  0  0  0  0  0  0  0  0  0  0
   -6.8027    1.5565    1.1957 H   0  0  0  0  0  0  0  0  0  0  0  0
   -5.9448    1.9510   -1.1387 H   0  0  0  0  0  0  0  0  0  0  0  0
   -5.3335    0.3203   -1.2084 H   0  0  0  0  0  0  0  0  0  0  0  0
   -3.6733    2.1796   -0.7084 H   0  0  0  0  0  0  0  0  0  0  0  0
   -4.4736    2.4652    0.8224 H   0  0  0  0  0  0  0  0  0  0  0  0
   -3.7279    0.3081    1.6914 H   0  0  0  0  0  0  0  0  0  0  0  0
   -2.3771    1.2032    1.0441 H   0  0  0  0  0  0  0  0  0  0  0  0
   -2.4743   -0.1241   -1.0750 H   0  0  0  0  0  0  0  0  0  0  0  0
   -3.8040   -1.0735   -0.4372 H   0  0  0  0  0  0  0  0  0  0  0  0
   -2.4248   -1.9457    1.4358 H   0  0  0  0  0  0  0  0  0  0  0  0
   -0.2290   -2.5191    0.8680 H   0  0  0  0  0  0  0  0  0  0  0  0
    0.5283   -2.1399   -1.4383 H   0  0  0  0  0  0  0  0  0  0  0  0
   -0.5587   -0.7928   -1.6683 H   0  0  0  0  0  0  0  0  0  0  0  0
    1.6029    0.1304   -1.4273 H   0  0  0  0  0  0  0  0  0  0  0  0
    0.7425    0.5384    0.0541 H   0  0  0  0  0  0  0  0  0  0  0  0
    1.8735   -1.3831    1.2269 H   0  0  0  0  0  0  0  0  0  0  0  0
    2.7304   -1.7781   -0.2583 H   0  0  0  0  0  0  0  0  0  0  0  0
    4.0873   -0.5343    1.3847 H   0  0  0  0  0  0  0  0  0  0  0  0
    2.9854    0.8378    1.3230 H   0  0  0  0  0  0  0  0  0  0  0  0
    3.5201    1.2390   -1.0466 H   0  0  0  0  0  0  0  0  0  0  0  0
    4.4913   -0.2204   -1.1272 H   0  0  0  0  0  0  0  0  0  0  0  0
    5.0638    2.2848    0.5448 H   0  0  0  0  0  0  0  0  0  0  0  0
    5.8340    1.8653   -0.9784 H   0  0  0  0  0  0  0  0  0  0  0  0
    6.1109    0.3041    1.6439 H   0  0  0  0  0  0  0  0  0  0  0  0
    7.3025    1.4109    0.9435 H   0  0  0  0  0  0  0  0  0  0  0  0
    8.2325   -1.8960    0.0881 H   0  0  0  0  0  0  0  0  0  0  0  0
  1  2  1  0
  2  3  1  0
  3  4  1  0
  4  5  1  0
  5  6  1  0
  6  7  1  0
  7  8  2  0
  8  9  1  0
  9 10  1  0
 10 11  1  0
 11 12  1  0
 12 13  1  0
 13 14  1  0
 14 15  1  0
 15 16  1  0
 16 17  2  0
 16 18  1  0
  1 19  1  0
  1 20  1  0
  1 21  1  0
  2 22  1  0
  2 23  1  0
  3 24  1  0
  3 25  1  0
  4 26  1  0
  4 27  1  0
  5 28  1  0
  5 29  1  0
  6 30  1  0
  6 31  1  0
  7 32  1  0
  8 33  1  0
  9 34  1  0
  9 35  1  0
 10 36  1  0
 10 37  1  0
 11 38  1  0
 11 39  1  0
 12 40  1  0
 12 41  1  0
 13 42  1  0
 13 43  1  0
 14 44  1  0
 14 45  1  0
 15 46  1  0
 15 47  1  0
 18 48  1  0
M  END
$$$$
