
     RDKit          3D

126129  0  0  0  0  0  0  0  0999 V2000
   -5.5865    2.4907    3.5290 C   0  0  0  0  0  0  0  0  0  0  0  0
   -5.0342    2.6854    2.1093 C   0  0  2  0  0  0  0  0  0  0  0  0
   -4.7058    1.3059    1.4779 C   0  0  0  0  0  0  0  0  0  0  0  0
   -5.5537    1.0072    0.2209 C   0  0  1  0  0  0  0  0  0  0  0  0
   -5.3120   -0.4125   -0.3677 C   0  0  2  0  0  0  0  0  0  0  0  0
   -5.7243   -1.5474    0.6114 C   0  0  2  0  0  0  0  0  0  0  0  0
   -4.4901   -2.2963    1.1089 C   0  0  0  0  0  0  0  0  0  0  0  0
   -3.5827   -2.7940   -0.0328 C   0  0  2  0  0  0  0  0  0  0  0  0
   -3.5272   -1.7881   -1.2182 C   0  0  1  0  0  0  0  0  0  0  0  0
   -3.9336   -0.4897   -0.7646 O   0  0  0  0  0  0  0  0  0  0  0  0
   -2.0283   -1.6130   -1.5885 C   0  0  0  0  0  0  0  0  0  0  0  0
   -1.2954   -0.7057   -1.2081 O   0  0  0  0  0  0  0  0  0  0  0  0
   -1.4373   -2.7199   -2.4403 C   0  0  0  0  0  0  0  0  0  0  0  0
   -2.0853   -3.0569   -3.4267 O   0  0  0  0  0  0  0  0  0  0  0  0
   -0.2361   -3.3053   -2.0360 N   0  0  0  0  0  0  0  0  0  0  0  0
    0.3153   -4.4077   -2.8083 C   0  0  0  0  0  0  0  0  0  0  0  0
    0.4609   -5.6485   -1.9266 C   0  0  0  0  0  0  0  0  0  0  0  0
    0.8231   -5.3153   -0.4774 C   0  0  0  0  0  0  0  0  0  0  0  0
    1.4962   -3.9518   -0.3595 C   0  0  0  0  0  0  0  0  0  0  0  0
    0.5750   -2.8357   -0.8876 C   0  0  1  0  0  0  0  0  0  0  0  0
    1.4191   -1.6044   -1.2767 C   0  0  0  0  0  0  0  0  0  0  0  0
    1.4169   -1.0621   -2.3755 O   0  0  0  0  0  0  0  0  0  0  0  0
    2.1334   -1.1657   -0.2051 O   0  0  0  0  0  0  0  0  0  0  0  0
    2.9386    0.0111   -0.4044 C   0  0  1  0  0  0  0  0  0  0  0  0
    2.1688    1.3252   -0.0309 C   0  0  1  0  0  0  0  0  0  0  0  0
    1.6758    2.0633   -1.3135 C   0  0  2  0  0  0  0  0  0  0  0  0
    1.4942    3.5757   -1.1718 C   0  0  0  0  0  0  0  0  0  0  0  0
    0.4390    4.0291   -0.1816 C   0  0  0  0  0  0  0  0  0  0  0  0
    0.7893    4.4096    0.9415 O   0  0  0  0  0  0  0  0  0  0  0  0
   -1.0395    4.0639   -0.6475 C   0  0  1  0  0  0  0  0  0  0  0  0
   -1.9464    3.7210    0.5313 C   0  0  0  0  0  0  0  0  0  0  0  0
   -3.2251    4.0478    0.8205 C   0  0  0  0  0  0  0  0  0  0  0  0
   -3.8179    3.6359    2.1645 C   0  0  0  0  0  0  0  0  0  0  0  0
   -4.1283    4.8589   -0.0654 C   0  0  0  0  0  0  0  0  0  0  0  0
   -1.2465    5.3880   -1.4187 C   0  0  0  0  0  0  0  0  0  0  0  0
   -1.2421    6.6495   -0.5882 C   0  0  0  0  0  0  0  0  0  0  0  0
   -1.8048    7.7953   -0.9933 C   0  0  0  0  0  0  0  0  0  0  0  0
    0.4729    1.5326   -1.8453 O   0  0  0  0  0  0  0  0  0  0  0  0
    1.0485    1.0599    0.9837 C   0  0  0  0  0  0  0  0  0  0  0  0
    4.2123   -0.2019    0.4234 C   0  0  0  0  0  0  0  0  0  0  0  0
    5.4095   -0.3050   -0.1976 C   0  0  0  0  0  0  0  0  0  0  0  0
    6.7720   -0.5358    0.4172 C   0  0  2  0  0  0  0  0  0  0  0  0
    7.7958    0.4918   -0.1024 C   0  0  0  0  0  0  0  0  0  0  0  0
    9.2160   -0.0737   -0.2276 C   0  0  0  0  0  0  0  0  0  0  0  0
    9.5491   -1.0882    0.8648 C   0  0  2  0  0  0  0  0  0  0  0  0
    8.5504   -2.2728    0.8959 C   0  0  1  0  0  0  0  0  0  0  0  0
    7.2478   -1.9627    0.1395 C   0  0  0  0  0  0  0  0  0  0  0  0
    9.1132   -3.4429    0.2829 O   0  0  0  0  0  0  0  0  0  0  0  0
    9.9645   -4.1650    1.1637 C   0  0  0  0  0  0  0  0  0  0  0  0
    9.5241   -0.4243    2.1327 O   0  0  0  0  0  0  0  0  0  0  0  0
    4.0291   -0.3202    1.9170 C   0  0  0  0  0  0  0  0  0  0  0  0
   -4.3736   -2.1855   -2.2784 O   0  0  0  0  0  0  0  0  0  0  0  0
   -3.9309   -4.2233   -0.4629 C   0  0  0  0  0  0  0  0  0  0  0  0
   -6.5657   -2.5301   -0.0184 O   0  0  0  0  0  0  0  0  0  0  0  0
   -7.9142   -2.0997   -0.1669 C   0  0  0  0  0  0  0  0  0  0  0  0
   -6.9437    1.1635    0.5582 O   0  0  0  0  0  0  0  0  0  0  0  0
   -7.7025    1.7265   -0.5064 C   0  0  0  0  0  0  0  0  0  0  0  0
   -5.8250    3.4555    3.9932 H   0  0  0  0  0  0  0  0  0  0  0  0
   -4.8659    1.9740    4.1726 H   0  0  0  0  0  0  0  0  0  0  0  0
   -6.5064    1.8985    3.5080 H   0  0  0  0  0  0  0  0  0  0  0  0
   -5.8303    3.1782    1.5400 H   0  0  0  0  0  0  0  0  0  0  0  0
   -4.8892    0.5245    2.2268 H   0  0  0  0  0  0  0  0  0  0  0  0
   -3.6430    1.2338    1.2213 H   0  0  0  0  0  0  0  0  0  0  0  0
   -5.2637    1.7512   -0.5334 H   0  0  0  0  0  0  0  0  0  0  0  0
   -5.9115   -0.4846   -1.2818 H   0  0  0  0  0  0  0  0  0  0  0  0
   -6.2677   -1.1620    1.4807 H   0  0  0  0  0  0  0  0  0  0  0  0
   -4.7845   -3.1386    1.7474 H   0  0  0  0  0  0  0  0  0  0  0  0
   -3.9028   -1.6173    1.7414 H   0  0  0  0  0  0  0  0  0  0  0  0
   -2.5818   -2.8619    0.4195 H   0  0  0  0  0  0  0  0  0  0  0  0
    1.2936   -4.0896   -3.1920 H   0  0  0  0  0  0  0  0  0  0  0  0
   -0.3074   -4.6423   -3.6791 H   0  0  0  0  0  0  0  0  0  0  0  0
   -0.4831   -6.2092   -1.9228 H   0  0  0  0  0  0  0  0  0  0  0  0
    1.2116   -6.3181   -2.3683 H   0  0  0  0  0  0  0  0  0  0  0  0
   -0.0950   -5.3048    0.1238 H   0  0  0  0  0  0  0  0  0  0  0  0
    1.4603   -6.0974   -0.0547 H   0  0  0  0  0  0  0  0  0  0  0  0
    1.7459   -3.7510    0.6878 H   0  0  0  0  0  0  0  0  0  0  0  0
    2.4465   -3.9651   -0.9086 H   0  0  0  0  0  0  0  0  0  0  0  0
   -0.1141   -2.5330   -0.0949 H   0  0  0  0  0  0  0  0  0  0  0  0
    3.2487    0.0622   -1.4552 H   0  0  0  0  0  0  0  0  0  0  0  0
    2.8996    2.0014    0.4366 H   0  0  0  0  0  0  0  0  0  0  0  0
    2.4375    1.9399   -2.0932 H   0  0  0  0  0  0  0  0  0  0  0  0
    1.2382    4.0036   -2.1491 H   0  0  0  0  0  0  0  0  0  0  0  0
    2.4475    4.0352   -0.8798 H   0  0  0  0  0  0  0  0  0  0  0  0
   -1.1672    3.2450   -1.3621 H   0  0  0  0  0  0  0  0  0  0  0  0
   -1.4357    3.1014    1.2703 H   0  0  0  0  0  0  0  0  0  0  0  0
   -3.0448    3.1788    2.7974 H   0  0  0  0  0  0  0  0  0  0  0  0
   -4.1104    4.5591    2.6829 H   0  0  0  0  0  0  0  0  0  0  0  0
   -4.0132    5.9234    0.1473 H   0  0  0  0  0  0  0  0  0  0  0  0
   -5.1848    4.6175    0.1027 H   0  0  0  0  0  0  0  0  0  0  0  0
   -3.9498    4.6621   -1.1241 H   0  0  0  0  0  0  0  0  0  0  0  0
   -0.4367    5.4986   -2.1537 H   0  0  0  0  0  0  0  0  0  0  0  0
   -2.1653    5.3317   -2.0125 H   0  0  0  0  0  0  0  0  0  0  0  0
   -0.7606    6.6137    0.3875 H   0  0  0  0  0  0  0  0  0  0  0  0
   -1.7690    8.6809   -0.3638 H   0  0  0  0  0  0  0  0  0  0  0  0
   -2.2896    7.8836   -1.9586 H   0  0  0  0  0  0  0  0  0  0  0  0
    0.6204    0.6059   -2.1258 H   0  0  0  0  0  0  0  0  0  0  0  0
    1.3787    0.3997    1.7916 H   0  0  0  0  0  0  0  0  0  0  0  0
    0.1744    0.5930    0.5221 H   0  0  0  0  0  0  0  0  0  0  0  0
    0.7207    1.9787    1.4704 H   0  0  0  0  0  0  0  0  0  0  0  0
    5.4245   -0.2417   -1.2875 H   0  0  0  0  0  0  0  0  0  0  0  0
    6.7234   -0.4082    1.5031 H   0  0  0  0  0  0  0  0  0  0  0  0
    7.5044    0.9000   -1.0778 H   0  0  0  0  0  0  0  0  0  0  0  0
    7.8073    1.3485    0.5861 H   0  0  0  0  0  0  0  0  0  0  0  0
    9.3293   -0.5531   -1.2083 H   0  0  0  0  0  0  0  0  0  0  0  0
    9.9261    0.7623   -0.2021 H   0  0  0  0  0  0  0  0  0  0  0  0
   10.5714   -1.4472    0.7123 H   0  0  0  0  0  0  0  0  0  0  0  0
    8.2823   -2.5082    1.9374 H   0  0  0  0  0  0  0  0  0  0  0  0
    7.3885   -2.1220   -0.9386 H   0  0  0  0  0  0  0  0  0  0  0  0
    6.4845   -2.6970    0.4382 H   0  0  0  0  0  0  0  0  0  0  0  0
    9.3967   -4.5371    2.0219 H   0  0  0  0  0  0  0  0  0  0  0  0
   10.8008   -3.5503    1.5058 H   0  0  0  0  0  0  0  0  0  0  0  0
   10.3683   -5.0256    0.6201 H   0  0  0  0  0  0  0  0  0  0  0  0
   10.1542    0.3142    2.0877 H   0  0  0  0  0  0  0  0  0  0  0  0
    3.2868   -1.0874    2.1534 H   0  0  0  0  0  0  0  0  0  0  0  0
    4.9376   -0.6075    2.4505 H   0  0  0  0  0  0  0  0  0  0  0  0
    3.7011    0.6334    2.3392 H   0  0  0  0  0  0  0  0  0  0  0  0
   -3.8463   -2.2306   -3.0980 H   0  0  0  0  0  0  0  0  0  0  0  0
   -4.9467   -4.3025   -0.8593 H   0  0  0  0  0  0  0  0  0  0  0  0
   -3.2413   -4.5821   -1.2320 H   0  0  0  0  0  0  0  0  0  0  0  0
   -3.8527   -4.9074    0.3897 H   0  0  0  0  0  0  0  0  0  0  0  0
   -8.3321   -1.7906    0.7956 H   0  0  0  0  0  0  0  0  0  0  0  0
   -8.4996   -2.9434   -0.5387 H   0  0  0  0  0  0  0  0  0  0  0  0
   -7.9878   -1.2859   -0.8906 H   0  0  0  0  0  0  0  0  0  0  0  0
   -7.6414    1.1063   -1.4049 H   0  0  0  0  0  0  0  0  0  0  0  0
   -7.3535    2.7395   -0.7261 H   0  0  0  0  0  0  0  0  0  0  0  0
   -8.7480    1.7802   -0.1902 H   0  0  0  0  0  0  0  0  0  0  0  0
  1  2  1  0
  2  3  1  0
  3  4  1  0
  4  5  1  0
  5  6  1  0
  6  7  1  0
  7  8  1  0
  8  9  1  0
  9 10  1  0
  9 11  1  0
 11 12  2  0
 11 13  1  0
 13 14  2  0
 13 15  1  0
 15 16  1  0
 16 17  1  0
 17 18  1  0
 18 19  1  0
 19 20  1  0
 20 21  1  0
 21 22  2  0
 21 23  1  0
 23 24  1  0
 24 25  1  0
 25 26  1  0
 26 27  1  0
 27 28  1  0
 28 29  2  0
 28 30  1  0
 30 31  1  0
 31 32  2  0
 32 33  1  0
 32 34  1  0
 30 35  1  0
 35 36  1  0
 36 37  2  3
 26 38  1  0
 25 39  1  0
 24 40  1  0
 40 41  2  0
 41 42  1  0
 42 43  1  0
 43 44  1  0
 44 45  1  0
 45 46  1  0
 46 47  1  0
 46 48  1  0
 48 49  1  0
 45 50  1  0
 40 51  1  0
  9 52  1  6
  8 53  1  0
  6 54  1  0
 54 55  1  0
  4 56  1  0
 56 57  1  0
 33  2  1  0
 10  5  1  0
 20 15  1  0
 47 42  1  0
  1 58  1  0
  1 59  1  0
  1 60  1  0
  2 61  1  6
  3 62  1  0
  3 63  1  0
  4 64  1  6
  5 65  1  6
  6 66  1  1
  7 67  1  0
  7 68  1  0
  8 69  1  1
 16 70  1  0
 16 71  1  0
 17 72  1  0
 17 73  1  0
 18 74  1  0
 18 75  1  0
 19 76  1  0
 19 77  1  0
 20 78  1  1
 24 79  1  6
 25 80  1  1
 26 81  1  6
 27 82  1  0
 27 83  1  0
 30 84  1  6
 31 85  1  0
 33 86  1  0
 33 87  1  0
 34 88  1  0
 34 89  1  0
 34 90  1  0
 35 91  1  0
 35 92  1  0
 36 93  1  0
 37 94  1  0
 37 95  1  0
 38 96  1  0
 39 97  1  0
 39 98  1  0
 39 99  1  0
 41100  1  0
 42101  1  1
 43102  1  0
 43103  1  0
 44104  1  0
 44105  1  0
 45106  1  6
 46107  1  1
 47108  1  0
 47109  1  0
 49110  1  0
 49111  1  0
 49112  1  0
 50113  1  0
 51114  1  0
 51115  1  0
 51116  1  0
 52117  1  0
 53118  1  0
 53119  1  0
 53120  1  0
 55121  1  0
 55122  1  0
 55123  1  0
 57124  1  0
 57125  1  0
 57126  1  0
M  END
$$$$
