
     RDKit          3D

 51 52  0  0  0  0  0  0  0  0999 V2000
    1.2334    3.6361    0.9273 C   0  0  0  0  0  0  0  0  0  0  0  0
    1.0783    2.2573    0.2795 C   0  0  0  0  0  0  0  0  0  0  0  0
   -0.3428    1.7332    0.3963 C   0  0  0  0  0  0  0  0  0  0  0  0
   -0.9567    1.1217   -0.5711 N   0  0  0  0  0  0  0  0  0  0  0  0
   -2.2192    0.7536   -0.1252 C   0  0  0  0  0  0  0  0  0  0  0  0
   -2.6141    1.2056    1.1316 N   0  0  0  0  0  0  0  0  0  0  0  0
   -3.7006    0.7352    1.9576 C   0  0  0  0  0  0  0  0  0  0  0  0
   -1.2886    1.9536    1.9328 S   0  0  0  0  0  4  0  0  0  0  0  0
   -0.6793    1.0040    2.9229 O   0  0  0  0  0  0  0  0  0  0  0  0
   -2.9097   -0.0169   -0.9937 C   0  0  0  0  0  0  0  0  0  0  0  0
   -4.2429   -0.6054   -0.8735 C   0  0  0  0  0  0  0  0  0  0  0  0
   -4.4620   -1.7335   -0.0733 C   0  0  0  0  0  0  0  0  0  0  0  0
   -5.7350   -2.2967    0.0097 C   0  0  0  0  0  0  0  0  0  0  0  0
   -6.7792   -1.7449   -0.7276 C   0  0  0  0  0  0  0  0  0  0  0  0
   -7.9992   -2.2943   -0.6590 F   0  0  0  0  0  0  0  0  0  0  0  0
   -6.5730   -0.6363   -1.5420 C   0  0  0  0  0  0  0  0  0  0  0  0
   -5.3037   -0.0645   -1.6167 C   0  0  0  0  0  0  0  0  0  0  0  0
    2.1504    1.3060    0.7703 C   0  0  0  0  0  0  0  0  0  0  0  0
    2.0035    0.0035    1.0771 C   0  0  0  0  0  0  0  0  0  0  0  0
    3.1303   -0.8928    1.5072 C   0  0  0  0  0  0  0  0  0  0  0  0
    2.7550   -1.5153    2.7325 O   0  0  0  0  0  0  0  0  0  0  0  0
    3.4390   -1.9888    0.4817 C   0  0  0  0  0  0  0  0  0  0  0  0
    3.8267   -1.4875   -0.9166 C   0  0  0  0  0  0  0  0  0  0  0  0
    3.9461   -2.6405   -1.7575 O   0  0  0  0  0  0  0  0  0  0  0  0
    5.1566   -0.7351   -0.9308 C   0  0  0  0  0  0  0  0  0  0  0  0
    5.3858   -0.0693   -2.2611 C   0  0  0  0  0  0  0  0  0  0  0  0
    6.5053    0.6869   -2.2597 O   0  0  0  0  0  0  0  0  0  0  0  0
    4.6974   -0.1601   -3.2625 O   0  0  0  0  0  0  0  0  0  0  0  0
    0.4285    4.3081    0.6097 H   0  0  0  0  0  0  0  0  0  0  0  0
    2.1858    4.0980    0.6338 H   0  0  0  0  0  0  0  0  0  0  0  0
    1.2176    3.5801    2.0219 H   0  0  0  0  0  0  0  0  0  0  0  0
    1.2603    2.3909   -0.7983 H   0  0  0  0  0  0  0  0  0  0  0  0
   -3.5450   -0.3025    2.2703 H   0  0  0  0  0  0  0  0  0  0  0  0
   -4.6602    0.8236    1.4383 H   0  0  0  0  0  0  0  0  0  0  0  0
   -3.7981    1.3422    2.8693 H   0  0  0  0  0  0  0  0  0  0  0  0
   -2.4330   -0.2535   -1.9463 H   0  0  0  0  0  0  0  0  0  0  0  0
   -3.6432   -2.1760    0.4904 H   0  0  0  0  0  0  0  0  0  0  0  0
   -5.9222   -3.1656    0.6337 H   0  0  0  0  0  0  0  0  0  0  0  0
   -7.4001   -0.2302   -2.1179 H   0  0  0  0  0  0  0  0  0  0  0  0
   -5.1423    0.7976   -2.2585 H   0  0  0  0  0  0  0  0  0  0  0  0
    3.1500    1.7369    0.8357 H   0  0  0  0  0  0  0  0  0  0  0  0
    1.0310   -0.4821    0.9973 H   0  0  0  0  0  0  0  0  0  0  0  0
    4.0342   -0.3109    1.7183 H   0  0  0  0  0  0  0  0  0  0  0  0
    2.2856   -0.8502    3.2667 H   0  0  0  0  0  0  0  0  0  0  0  0
    4.2315   -2.6405    0.8740 H   0  0  0  0  0  0  0  0  0  0  0  0
    2.5720   -2.6596    0.3926 H   0  0  0  0  0  0  0  0  0  0  0  0
    3.0190   -0.8737   -1.3293 H   0  0  0  0  0  0  0  0  0  0  0  0
    3.9097   -2.3177   -2.6825 H   0  0  0  0  0  0  0  0  0  0  0  0
    5.9901   -1.4257   -0.7563 H   0  0  0  0  0  0  0  0  0  0  0  0
    5.1709    0.0527   -0.1732 H   0  0  0  0  0  0  0  0  0  0  0  0
    6.5562    1.0432   -3.1725 H   0  0  0  0  0  0  0  0  0  0  0  0
  1  2  1  0
  2  3  1  0
  3  4  2  0
  4  5  1  0
  5  6  1  0
  6  7  1  0
  6  8  1  0
  8  9  2  0
  5 10  2  3
 10 11  1  0
 11 12  2  0
 12 13  1  0
 13 14  2  0
 14 15  1  0
 14 16  1  0
 16 17  2  0
  2 18  1  0
 18 19  2  0
 19 20  1  0
 20 21  1  0
 20 22  1  0
 22 23  1  0
 23 24  1  0
 23 25  1  0
 25 26  1  0
 26 27  1  0
 26 28  2  0
  8  3  1  0
 17 11  1  0
  1 29  1  0
  1 30  1  0
  1 31  1  0
  2 32  1  0
  7 33  1  0
  7 34  1  0
  7 35  1  0
 10 36  1  0
 12 37  1  0
 13 38  1  0
 16 39  1  0
 17 40  1  0
 18 41  1  0
 19 42  1  0
 20 43  1  0
 21 44  1  0
 22 45  1  0
 22 46  1  0
 23 47  1  0
 24 48  1  0
 25 49  1  0
 25 50  1  0
 27 51  1  0
M  END
$$$$
