
     RDKit          3D

 46 48  0  0  0  0  0  0  0  0999 V2000
   -2.6952    1.4239    1.9349 C   0  0  0  0  0  0  0  0  0  0  0  0
   -3.1961    0.5463    0.9276 O   0  0  0  0  0  0  0  0  0  0  0  0
   -4.4972    0.2045    1.0751 C   0  0  0  0  0  0  0  0  0  0  0  0
   -5.2653    0.6224    1.9320 O   0  0  0  0  0  0  0  0  0  0  0  0
   -4.9571   -0.6653   -0.0282 C   0  0  0  0  0  0  0  0  0  0  0  0
   -6.2655   -0.4938   -0.5081 C   0  0  0  0  0  0  0  0  0  0  0  0
   -6.7337   -1.2493   -1.5816 C   0  0  0  0  0  0  0  0  0  0  0  0
   -5.9112   -2.2094   -2.1672 C   0  0  0  0  0  0  0  0  0  0  0  0
   -4.6222   -2.4202   -1.6735 C   0  0  0  0  0  0  0  0  0  0  0  0
   -4.1390   -1.6456   -0.6112 C   0  0  0  0  0  0  0  0  0  0  0  0
   -2.9150   -1.9260   -0.0608 O   0  0  0  0  0  0  0  0  0  0  0  0
   -1.8412   -1.8134   -1.0012 C   0  0  0  0  0  0  0  0  0  0  0  0
   -0.5909   -1.5780   -0.2084 C   0  0  0  0  0  0  0  0  0  0  0  0
    0.2188   -0.5205   -0.3802 C   0  0  0  0  0  0  0  0  0  0  0  0
    1.4272   -0.2812    0.4179 C   0  0  0  0  0  0  0  0  0  0  0  0
    2.5744    0.2200   -0.2185 C   0  0  0  0  0  0  0  0  0  0  0  0
    3.7512    0.5002    0.5009 C   0  0  0  0  0  0  0  0  0  0  0  0
    3.7384    0.2739    1.8827 C   0  0  0  0  0  0  0  0  0  0  0  0
    2.6047   -0.2095    2.5326 C   0  0  0  0  0  0  0  0  0  0  0  0
    1.4489   -0.4823    1.8026 C   0  0  0  0  0  0  0  0  0  0  0  0
    4.8266    0.5217    2.6282 F   0  0  0  0  0  0  0  0  0  0  0  0
    4.9418    1.0138   -0.1685 C   0  0  0  0  0  0  0  0  0  0  0  0
    6.1802    1.4548    0.2367 C   0  0  0  0  0  0  0  0  0  0  0  0
    6.8589    1.8169   -0.9577 C   0  0  0  0  0  0  0  0  0  0  0  0
    6.0717    1.6025   -2.0242 N   0  0  0  0  0  0  0  0  0  0  0  0
    4.8834    1.1042   -1.5292 O   0  0  0  0  0  0  0  0  0  0  0  0
    8.2063    2.3498   -1.0977 C   0  0  0  0  0  0  0  0  0  0  0  0
    8.7780    2.6360   -2.1410 O   0  0  0  0  0  0  0  0  0  0  0  0
    8.8547    2.5315    0.0794 O   0  0  0  0  0  0  0  0  0  0  0  0
   -7.1554    0.4011    0.0301 O   0  0  0  0  0  0  0  0  0  0  0  0
   -1.6824    1.7222    1.6476 H   0  0  0  0  0  0  0  0  0  0  0  0
   -2.6448    0.9015    2.8968 H   0  0  0  0  0  0  0  0  0  0  0  0
   -3.3105    2.3254    2.0139 H   0  0  0  0  0  0  0  0  0  0  0  0
   -7.7455   -1.0992   -1.9499 H   0  0  0  0  0  0  0  0  0  0  0  0
   -6.2840   -2.8107   -2.9929 H   0  0  0  0  0  0  0  0  0  0  0  0
   -4.0141   -3.2099   -2.1063 H   0  0  0  0  0  0  0  0  0  0  0  0
   -2.0156   -0.9958   -1.7125 H   0  0  0  0  0  0  0  0  0  0  0  0
   -1.7378   -2.7541   -1.5518 H   0  0  0  0  0  0  0  0  0  0  0  0
   -0.3684   -2.3301    0.5440 H   0  0  0  0  0  0  0  0  0  0  0  0
    0.0010    0.2194   -1.1475 H   0  0  0  0  0  0  0  0  0  0  0  0
    2.5467    0.3865   -1.2949 H   0  0  0  0  0  0  0  0  0  0  0  0
    2.6291   -0.3662    3.6066 H   0  0  0  0  0  0  0  0  0  0  0  0
    0.5651   -0.8424    2.3251 H   0  0  0  0  0  0  0  0  0  0  0  0
    6.5574    1.5155    1.2476 H   0  0  0  0  0  0  0  0  0  0  0  0
    9.7213    2.8879   -0.2082 H   0  0  0  0  0  0  0  0  0  0  0  0
   -6.7981    0.7210    0.8865 H   0  0  0  0  0  0  0  0  0  0  0  0
  1  2  1  0
  2  3  1  0
  3  4  2  0
  3  5  1  0
  5  6  2  0
  6  7  1  0
  7  8  2  0
  8  9  1  0
  9 10  2  0
 10 11  1  0
 11 12  1  0
 12 13  1  0
 13 14  2  0
 14 15  1  0
 15 16  2  0
 16 17  1  0
 17 18  2  0
 18 19  1  0
 19 20  2  0
 18 21  1  0
 17 22  1  0
 22 23  2  0
 23 24  1  0
 24 25  2  0
 25 26  1  0
 24 27  1  0
 27 28  2  0
 27 29  1  0
  6 30  1  0
 10  5  1  0
 20 15  1  0
 26 22  1  0
  1 31  1  0
  1 32  1  0
  1 33  1  0
  7 34  1  0
  8 35  1  0
  9 36  1  0
 12 37  1  0
 12 38  1  0
 13 39  1  0
 14 40  1  0
 16 41  1  0
 19 42  1  0
 20 43  1  0
 23 44  1  0
 29 45  1  0
 30 46  1  0
M  END
$$$$
