
     RDKit          3D

 39 40  0  0  0  0  0  0  0  0999 V2000
   -4.9523   -0.2931    0.6049 C   0  0  0  0  0  0  0  0  0  0  0  0
   -4.0557    0.1336   -0.5674 C   0  0  2  0  0  0  0  0  0  0  0  0
   -2.5630   -0.2040   -0.2910 C   0  0  0  0  0  0  0  0  0  0  0  0
   -1.9755    0.5363    0.9399 C   0  0  0  0  0  0  0  0  0  0  0  0
   -0.4646    0.3296    1.1321 C   0  0  0  0  0  0  0  0  0  0  0  0
    0.1417   -0.6842    0.1651 C   0  0  0  0  0  0  0  0  0  0  0  0
   -0.2006   -0.3452   -1.2950 C   0  0  0  0  0  0  0  0  0  0  0  0
   -1.6693    0.0683   -1.5092 C   0  0  0  0  0  0  0  0  0  0  0  0
    1.6302   -0.8963    0.4412 C   0  0  0  0  0  0  0  0  0  0  0  0
    2.0341   -1.9520    0.9474 O   0  0  0  0  0  0  0  0  0  0  0  0
    2.4376    0.1743    0.0549 N   0  0  0  0  0  0  0  0  0  0  0  0
    3.8222    0.0828    0.2260 C   0  0  0  0  0  0  0  0  0  0  0  0
    4.3778   -0.0085    1.5071 C   0  0  0  0  0  0  0  0  0  0  0  0
    5.7691   -0.0310    1.5971 C   0  0  0  0  0  0  0  0  0  0  0  0
    6.6093   -0.0033    0.5208 N   0  0  0  0  0  0  0  0  0  0  0  0
    6.0252    0.0565   -0.7047 C   0  0  0  0  0  0  0  0  0  0  0  0
    4.6476    0.1263   -0.9086 C   0  0  0  0  0  0  0  0  0  0  0  0
   -4.2519    1.5533   -0.8632 N   0  0  0  0  0  0  0  0  0  0  0  0
   -6.0076   -0.0846    0.3908 H   0  0  0  0  0  0  0  0  0  0  0  0
   -4.6930    0.2403    1.5148 H   0  0  0  0  0  0  0  0  0  0  0  0
   -4.8769   -1.3684    0.7989 H   0  0  0  0  0  0  0  0  0  0  0  0
   -4.3857   -0.4444   -1.4426 H   0  0  0  0  0  0  0  0  0  0  0  0
   -2.5158   -1.2853   -0.0871 H   0  0  0  0  0  0  0  0  0  0  0  0
   -2.1986    1.6151    0.8997 H   0  0  0  0  0  0  0  0  0  0  0  0
   -2.4879    0.1683    1.8385 H   0  0  0  0  0  0  0  0  0  0  0  0
    0.0336    1.2963    1.0341 H   0  0  0  0  0  0  0  0  0  0  0  0
   -0.2843    0.0229    2.1650 H   0  0  0  0  0  0  0  0  0  0  0  0
   -0.3180   -1.6501    0.3762 H   0  0  0  0  0  0  0  0  0  0  0  0
    0.4270    0.4479   -1.6966 H   0  0  0  0  0  0  0  0  0  0  0  0
    0.0303   -1.2178   -1.9301 H   0  0  0  0  0  0  0  0  0  0  0  0
   -1.6959    1.1375   -1.7913 H   0  0  0  0  0  0  0  0  0  0  0  0
   -2.0521   -0.4719   -2.3823 H   0  0  0  0  0  0  0  0  0  0  0  0
    2.1305    0.6872   -0.7676 H   0  0  0  0  0  0  0  0  0  0  0  0
    3.7593   -0.0210    2.4013 H   0  0  0  0  0  0  0  0  0  0  0  0
    6.2591   -0.0749    2.5708 H   0  0  0  0  0  0  0  0  0  0  0  0
    6.7267    0.0253   -1.5493 H   0  0  0  0  0  0  0  0  0  0  0  0
    4.2536    0.1743   -1.9206 H   0  0  0  0  0  0  0  0  0  0  0  0
   -5.1775    1.8278   -0.5258 H   0  0  0  0  0  0  0  0  0  0  0  0
   -4.2886    1.6966   -1.8942 H   0  0  0  0  0  0  0  0  0  0  0  0
  1  2  1  0
  2  3  1  0
  3  4  1  0
  4  5  1  0
  5  6  1  0
  6  7  1  0
  7  8  1  0
  6  9  1  0
  9 10  2  0
  9 11  1  0
 11 12  1  0
 12 13  2  0
 13 14  1  0
 14 15  2  0
 15 16  1  0
 16 17  2  0
  2 18  1  0
  8  3  1  0
 17 12  1  0
  1 19  1  0
  1 20  1  0
  1 21  1  0
  2 22  1  6
  3 23  1  0
  4 24  1  0
  4 25  1  0
  5 26  1  0
  5 27  1  0
  6 28  1  0
  7 29  1  0
  7 30  1  0
  8 31  1  0
  8 32  1  0
 11 33  1  0
 13 34  1  0
 14 35  1  0
 16 36  1  0
 17 37  1  0
 18 38  1  0
 18 39  1  0
M  END
$$$$
