
     RDKit          3D

 57 57  0  0  0  0  0  0  0  0999 V2000
   -6.5787    2.0030    1.5154 C   0  0  0  0  0  0  0  0  0  0  0  0
   -5.9365    0.7489    0.9341 C   0  0  0  0  0  0  0  0  0  0  0  0
   -4.4729    0.5594    1.3359 C   0  0  0  0  0  0  0  0  0  0  0  0
   -3.5311    1.7388    1.0725 C   0  0  0  0  0  0  0  0  0  0  0  0
   -3.3834    2.1894   -0.3871 C   0  0  0  0  0  0  0  0  0  0  0  0
   -2.8062    1.1689   -1.3811 C   0  0  1  0  0  0  0  0  0  0  0  0
   -1.5230    0.5167   -0.9288 C   0  0  0  0  0  0  0  0  0  0  0  0
   -1.2787   -0.8083   -0.8077 C   0  0  0  0  0  0  0  0  0  0  0  0
    0.0424   -1.3704   -0.3476 C   0  0  2  0  0  0  0  0  0  0  0  0
    0.8400   -2.0355   -1.4911 C   0  0  2  0  0  0  0  0  0  0  0  0
    0.5544   -3.5561   -1.4023 C   0  0  2  0  0  0  0  0  0  0  0  0
   -0.2827   -3.8410   -0.1581 C   0  0  0  0  0  0  0  0  0  0  0  0
   -0.2105   -2.5371    0.5785 C   0  0  0  0  0  0  0  0  0  0  0  0
   -0.3949   -2.4368    1.7884 O   0  0  0  0  0  0  0  0  0  0  0  0
    1.7428   -4.3481   -1.3938 O   0  0  0  0  0  0  0  0  0  0  0  0
    2.3459   -1.6875   -1.4344 C   0  0  0  0  0  0  0  0  0  0  0  0
    2.6317   -0.2206   -1.6078 C   0  0  0  0  0  0  0  0  0  0  0  0
    3.1784    0.6281   -0.7160 C   0  0  0  0  0  0  0  0  0  0  0  0
    3.6217    0.3286    0.6896 C   0  0  0  0  0  0  0  0  0  0  0  0
    5.1389    0.4683    0.8965 C   0  0  0  0  0  0  0  0  0  0  0  0
    5.6125    1.9180    0.8539 C   0  0  0  0  0  0  0  0  0  0  0  0
    7.0896    1.9879    1.1027 C   0  0  0  0  0  0  0  0  0  0  0  0
    7.9793    1.7286    0.3103 O   0  0  0  0  0  0  0  0  0  0  0  0
    7.3925    2.3601    2.3610 O   0  0  0  0  0  0  0  0  0  0  0  0
   -3.7863    0.1952   -1.6985 O   0  0  0  0  0  0  0  0  0  0  0  0
   -7.6629    1.8527    1.6188 H   0  0  0  0  0  0  0  0  0  0  0  0
   -6.1723    2.2521    2.5087 H   0  0  0  0  0  0  0  0  0  0  0  0
   -6.4253    2.8687    0.8509 H   0  0  0  0  0  0  0  0  0  0  0  0
   -6.4933   -0.1229    1.2850 H   0  0  0  0  0  0  0  0  0  0  0  0
   -6.0399    0.7634   -0.1557 H   0  0  0  0  0  0  0  0  0  0  0  0
   -4.4402    0.3457    2.4162 H   0  0  0  0  0  0  0  0  0  0  0  0
   -4.0842   -0.3408    0.8517 H   0  0  0  0  0  0  0  0  0  0  0  0
   -2.5381    1.4850    1.4746 H   0  0  0  0  0  0  0  0  0  0  0  0
   -3.8626    2.6052    1.6623 H   0  0  0  0  0  0  0  0  0  0  0  0
   -4.3579    2.5317   -0.7472 H   0  0  0  0  0  0  0  0  0  0  0  0
   -2.7304    3.0725   -0.3861 H   0  0  0  0  0  0  0  0  0  0  0  0
   -2.5904    1.7103   -2.3110 H   0  0  0  0  0  0  0  0  0  0  0  0
   -0.7181    1.2161   -0.6968 H   0  0  0  0  0  0  0  0  0  0  0  0
   -2.0814   -1.5127   -1.0266 H   0  0  0  0  0  0  0  0  0  0  0  0
    0.6147   -0.6180    0.2032 H   0  0  0  0  0  0  0  0  0  0  0  0
    0.4660   -1.6732   -2.4561 H   0  0  0  0  0  0  0  0  0  0  0  0
   -0.0050   -3.8740   -2.2877 H   0  0  0  0  0  0  0  0  0  0  0  0
    0.0976   -4.6632    0.4589 H   0  0  0  0  0  0  0  0  0  0  0  0
   -1.3337   -4.0244   -0.4173 H   0  0  0  0  0  0  0  0  0  0  0  0
    2.1390   -4.3404   -0.4996 H   0  0  0  0  0  0  0  0  0  0  0  0
    2.8708   -2.2119   -2.2442 H   0  0  0  0  0  0  0  0  0  0  0  0
    2.7765   -2.0657   -0.5034 H   0  0  0  0  0  0  0  0  0  0  0  0
    2.3612    0.1784   -2.5866 H   0  0  0  0  0  0  0  0  0  0  0  0
    3.3156    1.6608   -1.0397 H   0  0  0  0  0  0  0  0  0  0  0  0
    3.3396   -0.6862    0.9886 H   0  0  0  0  0  0  0  0  0  0  0  0
    3.0854    0.9995    1.3767 H   0  0  0  0  0  0  0  0  0  0  0  0
    5.4027    0.0292    1.8724 H   0  0  0  0  0  0  0  0  0  0  0  0
    5.6769   -0.1319    0.1463 H   0  0  0  0  0  0  0  0  0  0  0  0
    5.0949    2.5131    1.6139 H   0  0  0  0  0  0  0  0  0  0  0  0
    5.4179    2.3977   -0.1085 H   0  0  0  0  0  0  0  0  0  0  0  0
    8.3704    2.3429    2.3750 H   0  0  0  0  0  0  0  0  0  0  0  0
   -3.4784   -0.2581   -2.5008 H   0  0  0  0  0  0  0  0  0  0  0  0
  1  2  1  0
  2  3  1  0
  3  4  1  0
  4  5  1  0
  5  6  1  0
  6  7  1  0
  7  8  2  0
  8  9  1  0
  9 10  1  0
 10 11  1  0
 11 12  1  0
 12 13  1  0
 13 14  2  0
 11 15  1  0
 10 16  1  0
 16 17  1  0
 17 18  2  0
 18 19  1  0
 19 20  1  0
 20 21  1  0
 21 22  1  0
 22 23  2  0
 22 24  1  0
  6 25  1  0
 13  9  1  0
  1 26  1  0
  1 27  1  0
  1 28  1  0
  2 29  1  0
  2 30  1  0
  3 31  1  0
  3 32  1  0
  4 33  1  0
  4 34  1  0
  5 35  1  0
  5 36  1  0
  6 37  1  6
  7 38  1  0
  8 39  1  0
  9 40  1  1
 10 41  1  6
 11 42  1  6
 12 43  1  0
 12 44  1  0
 15 45  1  0
 16 46  1  0
 16 47  1  0
 17 48  1  0
 18 49  1  0
 19 50  1  0
 19 51  1  0
 20 52  1  0
 20 53  1  0
 21 54  1  0
 21 55  1  0
 24 56  1  0
 25 57  1  0
M  END
$$$$
