
     RDKit          3D

 32 33  0  0  0  0  0  0  0  0999 V2000
   -3.9514   -0.3631   -1.5991 C   0  0  0  0  0  0  0  0  0  0  0  0
   -3.0908    0.0343   -0.4046 C   0  0  0  0  0  0  0  0  0  0  0  0
   -1.6132    0.2182   -0.7890 C   0  0  0  0  0  0  0  0  0  0  0  0
   -1.2598    0.9402   -1.7178 O   0  0  0  0  0  0  0  0  0  0  0  0
   -0.8269   -0.5071    0.0970 N   0  0  0  0  0  0  0  0  0  0  0  0
   -1.6539   -1.2606    0.9069 C   0  0  0  0  0  0  0  0  0  0  0  0
   -1.3897   -2.0274    1.8204 O   0  0  0  0  0  0  0  0  0  0  0  0
   -2.9639   -1.0354    0.5436 N   0  0  0  0  0  0  0  0  0  0  0  0
    0.6009   -0.4705    0.1775 C   0  0  0  0  0  0  0  0  0  0  0  0
    1.3816    0.3311   -0.6875 C   0  0  0  0  0  0  0  0  0  0  0  0
    2.7898    0.4292   -0.5909 C   0  0  0  0  0  0  0  0  0  0  0  0
    3.4224   -0.2991    0.4212 C   0  0  0  0  0  0  0  0  0  0  0  0
    2.6880   -1.1311    1.2768 C   0  0  0  0  0  0  0  0  0  0  0  0
    1.2967   -1.2122    1.1472 C   0  0  0  0  0  0  0  0  0  0  0  0
    4.8633   -0.1933    0.6522 N   0  0  0  0  0  4  0  0  0  0  0  0
    5.3598    0.9426    0.6590 O   0  0  0  0  0  0  0  0  0  0  0  0
    5.4703   -1.2593    0.8492 O   0  0  0  0  0  1  0  0  0  0  0  0
    3.5482    1.2928   -1.5695 C   0  0  0  0  0  0  0  0  0  0  0  0
    4.6979    0.7105   -2.0049 F   0  0  0  0  0  0  0  0  0  0  0  0
    3.8816    2.5106   -1.0666 F   0  0  0  0  0  0  0  0  0  0  0  0
    2.8380    1.5491   -2.7065 F   0  0  0  0  0  0  0  0  0  0  0  0
   -3.5873    1.3073    0.2696 C   0  0  0  0  0  0  0  0  0  0  0  0
   -3.9886    0.4443   -2.3419 H   0  0  0  0  0  0  0  0  0  0  0  0
   -3.5567   -1.2453   -2.0967 H   0  0  0  0  0  0  0  0  0  0  0  0
   -4.9831   -0.5791   -1.2924 H   0  0  0  0  0  0  0  0  0  0  0  0
   -3.7111   -1.4170    1.1102 H   0  0  0  0  0  0  0  0  0  0  0  0
    0.9090    0.9189   -1.4717 H   0  0  0  0  0  0  0  0  0  0  0  0
    3.1768   -1.7041    2.0635 H   0  0  0  0  0  0  0  0  0  0  0  0
    0.7936   -1.8643    1.8561 H   0  0  0  0  0  0  0  0  0  0  0  0
   -2.9381    1.6036    1.1092 H   0  0  0  0  0  0  0  0  0  0  0  0
   -3.5978    2.1445   -0.4309 H   0  0  0  0  0  0  0  0  0  0  0  0
   -4.6057    1.1916    0.6753 H   0  0  0  0  0  0  0  0  0  0  0  0
  1  2  1  0
  2  3  1  0
  3  4  2  0
  3  5  1  0
  5  6  1  0
  6  7  2  0
  6  8  1  0
  5  9  1  0
  9 10  2  0
 10 11  1  0
 11 12  2  0
 12 13  1  0
 13 14  2  0
 12 15  1  0
 15 16  2  0
 15 17  1  0
 11 18  1  0
 18 19  1  0
 18 20  1  0
 18 21  1  0
  2 22  1  0
  8  2  1  0
 14  9  1  0
  1 23  1  0
  1 24  1  0
  1 25  1  0
  8 26  1  0
 10 27  1  0
 13 28  1  0
 14 29  1  0
 22 30  1  0
 22 31  1  0
 22 32  1  0
M  CHG  2  15   1  17  -1
M  END
$$$$
