
     RDKit          3D

 20 19  0  0  0  0  0  0  0  0999 V2000
   -1.0773   -0.5596   -0.0499 C   0  0  0  0  0  0  0  0  0  0  0  0
    0.0325    0.4811    0.1775 C   0  0  0  0  0  0  0  0  0  0  0  0
    1.3974   -0.0472   -0.2638 C   0  0  0  0  0  0  0  0  0  0  0  0
    1.7320   -1.2041    0.4902 O   0  0  0  0  0  0  0  0  0  0  0  0
    2.9733   -1.7678    0.1037 N   0  0  0  0  0  4  0  0  0  0  0  0
    3.5904   -1.1913   -0.7970 O   0  0  0  0  0  0  0  0  0  0  0  0
    3.2714   -2.7593    0.7635 O   0  0  0  0  0  1  0  0  0  0  0  0
   -0.2712    1.6366   -0.6167 O   0  0  0  0  0  0  0  0  0  0  0  0
    0.0129    2.8778    0.0415 N   0  0  0  0  0  4  0  0  0  0  0  0
    0.6296    2.8339    1.1155 O   0  0  0  0  0  0  0  0  0  0  0  0
   -0.3737    3.8471   -0.5988 O   0  0  0  0  0  1  0  0  0  0  0  0
   -2.3278    0.0592    0.2600 O   0  0  0  0  0  0  0  0  0  0  0  0
   -3.4255   -0.8111    0.0561 N   0  0  0  0  0  4  0  0  0  0  0  0
   -4.5080   -0.2176    0.0983 O   0  0  0  0  0  0  0  0  0  0  0  0
   -3.1682   -2.0063   -0.1251 O   0  0  0  0  0  1  0  0  0  0  0  0
   -0.9052   -1.4075    0.6212 H   0  0  0  0  0  0  0  0  0  0  0  0
   -1.0955   -0.8834   -1.0905 H   0  0  0  0  0  0  0  0  0  0  0  0
    0.0206    0.6777    1.2630 H   0  0  0  0  0  0  0  0  0  0  0  0
    1.3438   -0.2993   -1.3344 H   0  0  0  0  0  0  0  0  0  0  0  0
    2.1485    0.7410   -0.1144 H   0  0  0  0  0  0  0  0  0  0  0  0
  1  2  1  0
  2  3  1  0
  3  4  1  0
  4  5  1  0
  5  6  2  0
  5  7  1  0
  2  8  1  0
  8  9  1  0
  9 10  2  0
  9 11  1  0
  1 12  1  0
 12 13  1  0
 13 14  2  0
 13 15  1  0
  1 16  1  0
  1 17  1  0
  2 18  1  0
  3 19  1  0
  3 20  1  0
M  CHG  6   5   1   7  -1   9   1  11  -1  13   1  15  -1
M  END
$$$$
