
     RDKit          3D

 62 64  0  0  0  0  0  0  0  0999 V2000
   -1.0685    0.1812   -0.3341 C   0  0  0  0  0  0  0  0  0  0  0  0
    0.4523   -0.5045    0.2801 S   0  0  0  0  0  6  0  0  0  0  0  0
    0.2316   -1.0886    1.5815 O   0  0  0  0  0  0  0  0  0  0  0  0
    1.1312   -1.2053   -0.7856 O   0  0  0  0  0  0  0  0  0  0  0  0
    1.2583    0.8800    0.4782 O   0  0  0  0  0  0  0  0  0  0  0  0
   -6.9131   -0.8741    0.0285 C   0  0  0  0  0  0  0  0  0  0  0  0
   -7.1147   -1.2965   -1.4141 C   0  0  0  0  0  0  0  0  0  0  0  0
   -5.6899   -1.4436   -1.9353 C   0  0  0  0  0  0  0  0  0  0  0  0
   -4.8520   -1.9779   -0.7378 C   0  0  0  0  0  0  0  0  0  0  0  0
   -5.7851   -1.7853    0.4977 C   0  0  0  0  0  0  0  0  0  0  0  0
   -4.6352   -3.4427   -0.8966 C   0  0  0  0  0  0  0  0  0  0  0  0
   -4.4856   -4.5866   -1.0297 N   0  0  0  0  0  0  0  0  0  0  0  0
   -3.5273   -1.1986   -0.6870 C   0  0  0  0  0  0  0  0  0  0  0  0
   -3.3751   -0.0255    0.0694 C   0  0  0  0  0  0  0  0  0  0  0  0
   -2.1668    0.6848    0.0749 C   0  0  0  0  0  0  0  0  0  0  0  0
   -1.0769    0.2560   -0.6867 C   0  0  0  0  0  0  0  0  0  0  0  0
   -1.2206   -0.8889   -1.4640 C   0  0  0  0  0  0  0  0  0  0  0  0
   -2.4281   -1.6013   -1.4693 C   0  0  0  0  0  0  0  0  0  0  0  0
    0.1000    1.0296   -0.6268 N   0  0  0  0  0  0  0  0  0  0  0  0
    1.3106    0.7635   -1.2414 C   0  0  0  0  0  0  0  0  0  0  0  0
    1.6015   -0.2085   -1.9295 O   0  0  0  0  0  0  0  0  0  0  0  0
    2.3504    1.7947   -1.0151 C   0  0  0  0  0  0  0  0  0  0  0  0
    3.6464    1.4231   -0.6253 C   0  0  0  0  0  0  0  0  0  0  0  0
    4.6037    2.3638   -0.4386 N   0  0  0  0  0  0  0  0  0  0  0  0
    4.2902    3.6613   -0.6570 C   0  0  0  0  0  0  0  0  0  0  0  0
    3.0413    4.0975   -1.0583 C   0  0  0  0  0  0  0  0  0  0  0  0
    2.0504    3.1440   -1.2447 C   0  0  0  0  0  0  0  0  0  0  0  0
    3.9331    0.0796   -0.3349 N   0  0  0  0  0  0  0  0  0  0  0  0
    5.3168   -0.2628   -0.0519 C   0  0  0  0  0  0  0  0  0  0  0  0
    5.5918   -0.1776    1.4291 C   0  0  0  0  0  0  0  0  0  0  0  0
    6.3954    0.8373    1.9539 C   0  0  0  0  0  0  0  0  0  0  0  0
    6.6118    0.8742    3.3223 C   0  0  0  0  0  0  0  0  0  0  0  0
    6.0912   -0.0174    4.1927 N   0  0  0  0  0  0  0  0  0  0  0  0
    5.3057   -0.9820    3.6674 C   0  0  0  0  0  0  0  0  0  0  0  0
    5.0295   -1.1025    2.3148 C   0  0  0  0  0  0  0  0  0  0  0  0
   -1.7510   -0.6450   -0.5442 H   0  0  0  0  0  0  0  0  0  0  0  0
   -0.8605    0.7373   -1.2501 H   0  0  0  0  0  0  0  0  0  0  0  0
   -1.4947    0.8337    0.4302 H   0  0  0  0  0  0  0  0  0  0  0  0
    2.1014    0.8112   -0.0195 H   0  0  0  0  0  0  0  0  0  0  0  0
   -6.6077    0.1769    0.0815 H   0  0  0  0  0  0  0  0  0  0  0  0
   -7.8198   -0.9977    0.6273 H   0  0  0  0  0  0  0  0  0  0  0  0
   -7.6906   -0.5635   -1.9860 H   0  0  0  0  0  0  0  0  0  0  0  0
   -7.6385   -2.2584   -1.4628 H   0  0  0  0  0  0  0  0  0  0  0  0
   -5.3403   -0.4536   -2.2575 H   0  0  0  0  0  0  0  0  0  0  0  0
   -5.6567   -2.0949   -2.8163 H   0  0  0  0  0  0  0  0  0  0  0  0
   -5.2859   -1.3953    1.3898 H   0  0  0  0  0  0  0  0  0  0  0  0
   -6.2348   -2.7407    0.8039 H   0  0  0  0  0  0  0  0  0  0  0  0
   -4.1912    0.3743    0.6657 H   0  0  0  0  0  0  0  0  0  0  0  0
   -2.0984    1.5816    0.6857 H   0  0  0  0  0  0  0  0  0  0  0  0
   -0.4124   -1.2611   -2.0866 H   0  0  0  0  0  0  0  0  0  0  0  0
   -2.4833   -2.4833   -2.1074 H   0  0  0  0  0  0  0  0  0  0  0  0
    0.0720    1.8274   -0.0043 H   0  0  0  0  0  0  0  0  0  0  0  0
    5.1033    4.3639   -0.4954 H   0  0  0  0  0  0  0  0  0  0  0  0
    2.8504    5.1511   -1.2298 H   0  0  0  0  0  0  0  0  0  0  0  0
    1.0659    3.4472   -1.5895 H   0  0  0  0  0  0  0  0  0  0  0  0
    3.5261   -0.5052   -1.0695 H   0  0  0  0  0  0  0  0  0  0  0  0
    6.0342    0.3254   -0.6383 H   0  0  0  0  0  0  0  0  0  0  0  0
    5.4851   -1.3032   -0.3596 H   0  0  0  0  0  0  0  0  0  0  0  0
    6.8309    1.5950    1.3110 H   0  0  0  0  0  0  0  0  0  0  0  0
    7.2277    1.6497    3.7678 H   0  0  0  0  0  0  0  0  0  0  0  0
    4.8859   -1.6795    4.3861 H   0  0  0  0  0  0  0  0  0  0  0  0
    4.3790   -1.8938    1.9576 H   0  0  0  0  0  0  0  0  0  0  0  0
  1  2  1  0
  2  3  2  0
  2  4  2  0
  2  5  1  0
  6  7  1  0
  7  8  1  0
  8  9  1  0
  9 10  1  0
  9 11  1  0
 11 12  3  0
  9 13  1  0
 13 14  2  0
 14 15  1  0
 15 16  2  0
 16 17  1  0
 17 18  2  0
 16 19  1  0
 19 20  1  0
 20 21  2  0
 20 22  1  0
 22 23  1  0
 23 24  2  0
 24 25  1  0
 25 26  2  0
 26 27  1  0
 23 28  1  0
 28 29  1  0
 29 30  1  0
 30 31  2  0
 31 32  1  0
 32 33  2  0
 33 34  1  0
 34 35  2  0
 10  6  1  0
 18 13  1  0
 27 22  2  0
 35 30  1  0
  1 36  1  0
  1 37  1  0
  1 38  1  0
  5 39  1  0
  6 40  1  0
  6 41  1  0
  7 42  1  0
  7 43  1  0
  8 44  1  0
  8 45  1  0
 10 46  1  0
 10 47  1  0
 14 48  1  0
 15 49  1  0
 17 50  1  0
 18 51  1  0
 19 52  1  0
 25 53  1  0
 26 54  1  0
 27 55  1  0
 28 56  1  0
 29 57  1  0
 29 58  1  0
 31 59  1  0
 32 60  1  0
 34 61  1  0
 35 62  1  0
M  END
$$$$
