
     RDKit          3D

 28 29  0  0  0  0  0  0  0  0999 V2000
   -0.7869   -1.0403    1.1347 C   0  0  0  0  0  0  0  0  0  0  0  0
   -2.1835   -1.1663    0.5745 C   0  0  1  0  0  0  0  0  0  0  0  0
   -2.1459   -0.2410   -0.6468 C   0  0  2  0  0  0  0  0  0  0  0  0
   -0.7771   -0.2057   -1.1069 O   0  0  0  0  0  0  0  0  0  0  0  0
    0.0287   -0.9038   -0.1449 C   0  0  1  0  0  0  0  0  0  0  0  0
    1.3177   -0.2561   -0.0263 N   0  0  0  0  0  0  0  0  0  0  0  0
    2.4135   -0.8255   -0.5833 C   0  0  0  0  0  0  0  0  0  0  0  0
    3.5820   -0.2951   -0.5739 N   0  0  0  0  0  0  0  0  0  0  0  0
    3.6949    0.9160    0.0193 C   0  0  0  0  0  0  0  0  0  0  0  0
    2.7060    1.5479    0.5455 N   0  0  0  0  0  0  0  0  0  0  0  0
    1.4518    1.0122    0.4813 C   0  0  0  0  0  0  0  0  0  0  0  0
    0.4873    1.6616    0.8790 O   0  0  0  0  0  0  0  0  0  0  0  0
    4.9354    1.4557    0.0698 N   0  0  0  0  0  0  0  0  0  0  0  0
   -2.6065    1.1816   -0.3230 C   0  0  0  0  0  0  0  0  0  0  0  0
   -3.9907    1.1829    0.0126 O   0  0  0  0  0  0  0  0  0  0  0  0
   -2.3620   -2.5290    0.1698 O   0  0  0  0  0  0  0  0  0  0  0  0
   -0.7266   -0.1575    1.7758 H   0  0  0  0  0  0  0  0  0  0  0  0
   -0.4616   -1.9052    1.7217 H   0  0  0  0  0  0  0  0  0  0  0  0
   -2.9631   -0.9284    1.3035 H   0  0  0  0  0  0  0  0  0  0  0  0
   -2.7613   -0.6488   -1.4571 H   0  0  0  0  0  0  0  0  0  0  0  0
    0.1816   -1.9082   -0.5614 H   0  0  0  0  0  0  0  0  0  0  0  0
    2.2583   -1.8084   -1.0545 H   0  0  0  0  0  0  0  0  0  0  0  0
    5.6732    0.7661    0.0285 H   0  0  0  0  0  0  0  0  0  0  0  0
    5.0362    2.1462    0.8019 H   0  0  0  0  0  0  0  0  0  0  0  0
   -2.4523    1.8340   -1.1892 H   0  0  0  0  0  0  0  0  0  0  0  0
   -2.0458    1.6070    0.5138 H   0  0  0  0  0  0  0  0  0  0  0  0
   -4.2314    2.1121    0.1799 H   0  0  0  0  0  0  0  0  0  0  0  0
   -3.2716   -2.6039   -0.1733 H   0  0  0  0  0  0  0  0  0  0  0  0
  1  2  1  0
  2  3  1  0
  3  4  1  0
  4  5  1  0
  5  6  1  0
  6  7  1  0
  7  8  2  0
  8  9  1  0
  9 10  2  0
 10 11  1  0
 11 12  2  0
  9 13  1  0
  3 14  1  0
 14 15  1  0
  2 16  1  0
  5  1  1  0
 11  6  1  0
  1 17  1  0
  1 18  1  0
  2 19  1  1
  3 20  1  6
  5 21  1  6
  7 22  1  0
 13 23  1  0
 13 24  1  0
 14 25  1  0
 14 26  1  0
 15 27  1  0
 16 28  1  0
M  END
$$$$
