
     RDKit          3D

 45 49  0  0  0  0  0  0  0  0999 V2000
   -5.4916    3.3532    1.1506 C   0  0  0  0  0  0  0  0  0  0  0  0
   -5.7802    2.4823    0.0360 O   0  0  0  0  0  0  0  0  0  0  0  0
   -4.6064    1.8095   -0.0695 C   0  0  0  0  0  0  0  0  0  0  0  0
   -3.6840    2.2060    0.8730 C   0  0  0  0  0  0  0  0  0  0  0  0
   -4.1665    3.1791    1.6900 O   0  0  0  0  0  0  0  0  0  0  0  0
   -2.4236    1.6464    0.9409 C   0  0  0  0  0  0  0  0  0  0  0  0
   -2.1065    0.6424    0.0207 C   0  0  0  0  0  0  0  0  0  0  0  0
   -3.0562    0.2475   -0.9570 C   0  0  0  0  0  0  0  0  0  0  0  0
   -4.3221    0.8337   -0.9981 C   0  0  0  0  0  0  0  0  0  0  0  0
   -0.7943    0.0286    0.0442 C   0  0  0  0  0  0  0  0  0  0  0  0
   -0.5232   -1.3265    0.0269 C   0  0  0  0  0  0  0  0  0  0  0  0
    0.8436   -1.3801   -0.0970 N   0  0  0  0  0  0  0  0  0  0  0  0
    1.3531   -0.1052   -0.0433 C   0  0  0  0  0  0  0  0  0  0  0  0
    0.3633    0.7665    0.0570 N   0  0  0  0  0  0  0  0  0  0  0  0
    2.7815    0.2381   -0.1241 C   0  0  0  0  0  0  0  0  0  0  0  0
    3.1466    1.5883   -0.2809 C   0  0  0  0  0  0  0  0  0  0  0  0
    4.4863    1.9743   -0.4150 C   0  0  0  0  0  0  0  0  0  0  0  0
    5.4952    1.0081   -0.3822 C   0  0  0  0  0  0  0  0  0  0  0  0
    5.1399   -0.3398   -0.2075 C   0  0  0  0  0  0  0  0  0  0  0  0
    3.7997   -0.7219   -0.0759 C   0  0  0  0  0  0  0  0  0  0  0  0
    6.9397    1.3302   -0.5703 C   0  0  0  0  0  0  0  0  0  0  0  0
    7.7657    0.4587   -0.8102 O   0  0  0  0  0  0  0  0  0  0  0  0
    7.3214    2.6423   -0.4659 N   0  0  0  0  0  0  0  0  0  0  0  0
   -1.3523   -2.5104    0.0922 C   0  0  0  0  0  0  0  0  0  0  0  0
   -2.3625   -2.6533    1.0413 C   0  0  0  0  0  0  0  0  0  0  0  0
   -3.1211   -3.8167    1.0262 C   0  0  0  0  0  0  0  0  0  0  0  0
   -2.8619   -4.7846    0.0624 C   0  0  0  0  0  0  0  0  0  0  0  0
   -1.8358   -4.5544   -0.8410 C   0  0  0  0  0  0  0  0  0  0  0  0
   -1.0547   -3.4498   -0.8355 N   0  0  0  0  0  0  0  0  0  0  0  0
   -5.6059    4.3946    0.8234 H   0  0  0  0  0  0  0  0  0  0  0  0
   -6.2217    3.1596    1.9467 H   0  0  0  0  0  0  0  0  0  0  0  0
   -1.7024    1.9756    1.6822 H   0  0  0  0  0  0  0  0  0  0  0  0
   -2.7938   -0.5089   -1.6949 H   0  0  0  0  0  0  0  0  0  0  0  0
   -5.0511    0.5330   -1.7450 H   0  0  0  0  0  0  0  0  0  0  0  0
    1.3687   -2.2376   -0.2024 H   0  0  0  0  0  0  0  0  0  0  0  0
    2.3693    2.3492   -0.3253 H   0  0  0  0  0  0  0  0  0  0  0  0
    4.7046    3.0292   -0.5793 H   0  0  0  0  0  0  0  0  0  0  0  0
    5.9158   -1.1021   -0.1870 H   0  0  0  0  0  0  0  0  0  0  0  0
    3.5823   -1.7771    0.0525 H   0  0  0  0  0  0  0  0  0  0  0  0
    8.3117    2.8317   -0.5692 H   0  0  0  0  0  0  0  0  0  0  0  0
    6.7365    3.3731   -0.0854 H   0  0  0  0  0  0  0  0  0  0  0  0
   -2.5557   -1.8768    1.7752 H   0  0  0  0  0  0  0  0  0  0  0  0
   -3.9103   -3.9606    1.7576 H   0  0  0  0  0  0  0  0  0  0  0  0
   -3.4381   -5.6996    0.0209 H   0  0  0  0  0  0  0  0  0  0  0  0
   -1.6032   -5.2760   -1.6172 H   0  0  0  0  0  0  0  0  0  0  0  0
  1  2  1  0
  2  3  1  0
  3  4  2  0
  4  5  1  0
  4  6  1  0
  6  7  2  0
  7  8  1  0
  8  9  2  0
  7 10  1  0
 10 11  2  0
 11 12  1  0
 12 13  1  0
 13 14  2  0
 13 15  1  0
 15 16  2  0
 16 17  1  0
 17 18  2  0
 18 19  1  0
 19 20  2  0
 18 21  1  0
 21 22  2  0
 21 23  1  0
 11 24  1  0
 24 25  2  0
 25 26  1  0
 26 27  2  0
 27 28  1  0
 28 29  2  0
  5  1  1  0
  9  3  1  0
 14 10  1  0
 20 15  1  0
 29 24  1  0
  1 30  1  0
  1 31  1  0
  6 32  1  0
  8 33  1  0
  9 34  1  0
 12 35  1  0
 16 36  1  0
 17 37  1  0
 19 38  1  0
 20 39  1  0
 23 40  1  0
 23 41  1  0
 25 42  1  0
 26 43  1  0
 27 44  1  0
 28 45  1  0
M  END
$$$$
