
     RDKit          3D

130129  0  0  0  0  0  0  0  0999 V2000
  -10.4243   -5.7909   -3.8867 C   0  0  0  0  0  0  0  0  0  0  0  0
  -10.0934   -4.7750   -2.8045 C   0  0  0  0  0  0  0  0  0  0  0  0
  -11.3348   -4.3959   -1.9963 C   0  0  0  0  0  0  0  0  0  0  0  0
  -11.0297   -3.4452   -0.8320 C   0  0  0  0  0  0  0  0  0  0  0  0
  -10.5649   -2.0605   -1.2889 C   0  0  0  0  0  0  0  0  0  0  0  0
  -10.4467   -1.0510   -0.1403 C   0  0  0  0  0  0  0  0  0  0  0  0
   -9.3491   -1.4066    0.8666 C   0  0  0  0  0  0  0  0  0  0  0  0
   -9.1707   -0.3631    1.9744 C   0  0  0  0  0  0  0  0  0  0  0  0
   -8.7076    1.0019    1.4546 C   0  0  0  0  0  0  0  0  0  0  0  0
   -8.1923    1.9223    2.5655 C   0  0  0  0  0  0  0  0  0  0  0  0
   -6.6643    1.9607    2.7273 C   0  0  0  0  0  0  0  0  0  0  0  0
   -6.0341    0.7200    3.3690 C   0  0  0  0  0  0  0  0  0  0  0  0
   -5.6355   -0.3939    2.3955 C   0  0  0  0  0  0  0  0  0  0  0  0
   -4.1922   -0.3283    1.8855 C   0  0  0  0  0  0  0  0  0  0  0  0
   -3.8894    0.8966    1.0242 C   0  0  0  0  0  0  0  0  0  0  0  0
   -2.5739    0.7512    0.2946 C   0  0  0  0  0  0  0  0  0  0  0  0
   -2.0836   -0.3108   -0.0601 O   0  0  0  0  0  0  0  0  0  0  0  0
   -2.0359    1.9785    0.0454 O   0  0  0  0  0  0  0  0  0  0  0  0
   -0.7904    1.9607   -0.6757 C   0  0  0  0  0  0  0  0  0  0  0  0
    0.4056    1.6619    0.2367 C   0  0  2  0  0  0  0  0  0  0  0  0
    0.6927    2.8291    1.1896 C   0  0  0  0  0  0  0  0  0  0  0  0
    1.0545    3.9757    0.4338 O   0  0  0  0  0  0  0  0  0  0  0  0
    1.2708    5.3543    1.2475 P   0  0  0  0  0  5  0  0  0  0  0  0
    1.6530    5.0910    2.6734 O   0  0  0  0  0  0  0  0  0  0  0  0
    2.0641    6.3033    0.3835 O   0  0  0  0  0  1  0  0  0  0  0  0
   -0.2750    5.8709    1.2515 O   0  0  0  0  0  0  0  0  0  0  0  0
   -0.5491    6.9835    0.4175 C   0  0  0  0  0  0  0  0  0  0  0  0
    0.0521    8.2564    1.0419 C   0  0  0  0  0  0  0  0  0  0  0  0
    0.4568    9.3565    0.0237 N   0  0  0  0  0  4  0  0  0  0  0  0
   -0.6670    9.6691   -0.9333 C   0  0  0  0  0  0  0  0  0  0  0  0
    0.8362   10.5984    0.8122 C   0  0  0  0  0  0  0  0  0  0  0  0
    1.7002    8.8911   -0.7486 C   0  0  0  0  0  0  0  0  0  0  0  0
    1.5524    1.4358   -0.6127 O   0  0  0  0  0  0  0  0  0  0  0  0
    2.5584    0.7035   -0.0662 C   0  0  0  0  0  0  0  0  0  0  0  0
    2.5209    0.1560    1.0269 O   0  0  0  0  0  0  0  0  0  0  0  0
    3.7482    0.6948   -0.9975 C   0  0  0  0  0  0  0  0  0  0  0  0
    4.5437   -0.6070   -0.9092 C   0  0  0  0  0  0  0  0  0  0  0  0
    3.8284   -1.7705   -1.6052 C   0  0  0  0  0  0  0  0  0  0  0  0
    4.4777   -3.1325   -1.3343 C   0  0  0  0  0  0  0  0  0  0  0  0
    5.9272   -3.2241   -1.8135 C   0  0  0  0  0  0  0  0  0  0  0  0
    6.5253   -4.6276   -1.6749 C   0  0  0  0  0  0  0  0  0  0  0  0
    6.5151   -5.2178   -0.2632 C   0  0  0  0  0  0  0  0  0  0  0  0
    7.1407   -4.3714    0.8524 C   0  0  0  0  0  0  0  0  0  0  0  0
    8.6694   -4.2605    0.8130 C   0  0  0  0  0  0  0  0  0  0  0  0
    9.1899   -3.1086   -0.0463 C   0  0  0  0  0  0  0  0  0  0  0  0
   10.6965   -2.8616    0.1193 C   0  0  0  0  0  0  0  0  0  0  0  0
   11.6084   -4.0578   -0.1718 C   0  0  0  0  0  0  0  0  0  0  0  0
   11.4831   -4.5897   -1.6017 C   0  0  0  0  0  0  0  0  0  0  0  0
   12.3800   -5.8009   -1.8764 C   0  0  0  0  0  0  0  0  0  0  0  0
   13.8667   -5.4808   -1.8345 C   0  0  0  0  0  0  0  0  0  0  0  0
  -10.8277   -6.7110   -3.4531 H   0  0  0  0  0  0  0  0  0  0  0  0
  -11.1633   -5.3878   -4.5861 H   0  0  0  0  0  0  0  0  0  0  0  0
   -9.5251   -6.0468   -4.4546 H   0  0  0  0  0  0  0  0  0  0  0  0
   -9.6580   -3.8889   -3.2783 H   0  0  0  0  0  0  0  0  0  0  0  0
   -9.3308   -5.1947   -2.1409 H   0  0  0  0  0  0  0  0  0  0  0  0
  -11.7852   -5.3066   -1.5843 H   0  0  0  0  0  0  0  0  0  0  0  0
  -12.0826   -3.9413   -2.6565 H   0  0  0  0  0  0  0  0  0  0  0  0
  -10.2743   -3.9050   -0.1844 H   0  0  0  0  0  0  0  0  0  0  0  0
  -11.9407   -3.3378   -0.2329 H   0  0  0  0  0  0  0  0  0  0  0  0
  -11.2826   -1.6647   -2.0177 H   0  0  0  0  0  0  0  0  0  0  0  0
   -9.5968   -2.1328   -1.8001 H   0  0  0  0  0  0  0  0  0  0  0  0
  -11.4098   -0.9642    0.3775 H   0  0  0  0  0  0  0  0  0  0  0  0
  -10.2360   -0.0721   -0.5837 H   0  0  0  0  0  0  0  0  0  0  0  0
   -9.5894   -2.3620    1.3470 H   0  0  0  0  0  0  0  0  0  0  0  0
   -8.3975   -1.5477    0.3402 H   0  0  0  0  0  0  0  0  0  0  0  0
   -8.4487   -0.7588    2.6958 H   0  0  0  0  0  0  0  0  0  0  0  0
  -10.1148   -0.2428    2.5204 H   0  0  0  0  0  0  0  0  0  0  0  0
   -7.9542    0.8917    0.6664 H   0  0  0  0  0  0  0  0  0  0  0  0
   -9.5707    1.4928    0.9880 H   0  0  0  0  0  0  0  0  0  0  0  0
   -8.6722    1.6850    3.5241 H   0  0  0  0  0  0  0  0  0  0  0  0
   -8.5057    2.9438    2.3146 H   0  0  0  0  0  0  0  0  0  0  0  0
   -6.1970    2.1965    1.7672 H   0  0  0  0  0  0  0  0  0  0  0  0
   -6.4430    2.8111    3.3869 H   0  0  0  0  0  0  0  0  0  0  0  0
   -6.7326    0.3137    4.1101 H   0  0  0  0  0  0  0  0  0  0  0  0
   -5.1444    1.0277    3.9348 H   0  0  0  0  0  0  0  0  0  0  0  0
   -5.7446   -1.3489    2.9228 H   0  0  0  0  0  0  0  0  0  0  0  0
   -6.3154   -0.4426    1.5416 H   0  0  0  0  0  0  0  0  0  0  0  0
   -4.0091   -1.2437    1.3058 H   0  0  0  0  0  0  0  0  0  0  0  0
   -3.4957   -0.3606    2.7341 H   0  0  0  0  0  0  0  0  0  0  0  0
   -4.6669    1.0435    0.2681 H   0  0  0  0  0  0  0  0  0  0  0  0
   -3.8408    1.7851    1.6624 H   0  0  0  0  0  0  0  0  0  0  0  0
   -0.8406    1.2391   -1.5027 H   0  0  0  0  0  0  0  0  0  0  0  0
   -0.6821    2.9381   -1.1601 H   0  0  0  0  0  0  0  0  0  0  0  0
    0.1868    0.7654    0.8283 H   0  0  0  0  0  0  0  0  0  0  0  0
   -0.1839    3.0494    1.8062 H   0  0  0  0  0  0  0  0  0  0  0  0
    1.5315    2.5804    1.8465 H   0  0  0  0  0  0  0  0  0  0  0  0
   -0.1889    6.7672   -0.5919 H   0  0  0  0  0  0  0  0  0  0  0  0
   -1.6357    7.0871    0.3514 H   0  0  0  0  0  0  0  0  0  0  0  0
   -0.7061    8.7094    1.6952 H   0  0  0  0  0  0  0  0  0  0  0  0
    0.9267    8.0652    1.6759 H   0  0  0  0  0  0  0  0  0  0  0  0
   -0.3668   10.5199   -1.5549 H   0  0  0  0  0  0  0  0  0  0  0  0
   -1.5583    9.9185   -0.3492 H   0  0  0  0  0  0  0  0  0  0  0  0
   -0.8534    8.7962   -1.5667 H   0  0  0  0  0  0  0  0  0  0  0  0
    1.6408   10.3476    1.5092 H   0  0  0  0  0  0  0  0  0  0  0  0
   -0.0465   10.9449    1.3569 H   0  0  0  0  0  0  0  0  0  0  0  0
    1.1681   11.3678    0.1095 H   0  0  0  0  0  0  0  0  0  0  0  0
    1.4458    8.0156   -1.3511 H   0  0  0  0  0  0  0  0  0  0  0  0
    2.0001    9.7045   -1.4176 H   0  0  0  0  0  0  0  0  0  0  0  0
    2.5028    8.6959   -0.0323 H   0  0  0  0  0  0  0  0  0  0  0  0
    3.4142    0.8557   -2.0283 H   0  0  0  0  0  0  0  0  0  0  0  0
    4.3833    1.5416   -0.7121 H   0  0  0  0  0  0  0  0  0  0  0  0
    5.5144   -0.4444   -1.3905 H   0  0  0  0  0  0  0  0  0  0  0  0
    4.7399   -0.8618    0.1390 H   0  0  0  0  0  0  0  0  0  0  0  0
    3.7985   -1.5861   -2.6863 H   0  0  0  0  0  0  0  0  0  0  0  0
    2.7862   -1.8223   -1.2671 H   0  0  0  0  0  0  0  0  0  0  0  0
    4.4195   -3.3402   -0.2592 H   0  0  0  0  0  0  0  0  0  0  0  0
    3.8820   -3.9044   -1.8360 H   0  0  0  0  0  0  0  0  0  0  0  0
    5.9747   -2.9346   -2.8714 H   0  0  0  0  0  0  0  0  0  0  0  0
    6.5517   -2.5077   -1.2709 H   0  0  0  0  0  0  0  0  0  0  0  0
    5.9669   -5.3098   -2.3299 H   0  0  0  0  0  0  0  0  0  0  0  0
    7.5485   -4.6231   -2.0644 H   0  0  0  0  0  0  0  0  0  0  0  0
    5.4747   -5.4262    0.0183 H   0  0  0  0  0  0  0  0  0  0  0  0
    7.0091   -6.1954   -0.2918 H   0  0  0  0  0  0  0  0  0  0  0  0
    6.6807   -3.3782    0.9046 H   0  0  0  0  0  0  0  0  0  0  0  0
    6.8821   -4.8660    1.7965 H   0  0  0  0  0  0  0  0  0  0  0  0
    9.0984   -5.2147    0.4864 H   0  0  0  0  0  0  0  0  0  0  0  0
    9.0162   -4.0979    1.8424 H   0  0  0  0  0  0  0  0  0  0  0  0
    8.9688   -3.2807   -1.1018 H   0  0  0  0  0  0  0  0  0  0  0  0
    8.6673   -2.1839    0.2304 H   0  0  0  0  0  0  0  0  0  0  0  0
   10.9838   -2.0269   -0.5317 H   0  0  0  0  0  0  0  0  0  0  0  0
   10.8854   -2.5281    1.1469 H   0  0  0  0  0  0  0  0  0  0  0  0
   11.4097   -4.8623    0.5455 H   0  0  0  0  0  0  0  0  0  0  0  0
   12.6397   -3.7346    0.0097 H   0  0  0  0  0  0  0  0  0  0  0  0
   10.4478   -4.8941   -1.7928 H   0  0  0  0  0  0  0  0  0  0  0  0
   11.7188   -3.7882   -2.3147 H   0  0  0  0  0  0  0  0  0  0  0  0
   12.1566   -6.6029   -1.1616 H   0  0  0  0  0  0  0  0  0  0  0  0
   12.1358   -6.1912   -2.8716 H   0  0  0  0  0  0  0  0  0  0  0  0
   14.1115   -4.6649   -2.5211 H   0  0  0  0  0  0  0  0  0  0  0  0
   14.1861   -5.1981   -0.8251 H   0  0  0  0  0  0  0  0  0  0  0  0
   14.4484   -6.3621   -2.1326 H   0  0  0  0  0  0  0  0  0  0  0  0
  1  2  1  0
  2  3  1  0
  3  4  1  0
  4  5  1  0
  5  6  1  0
  6  7  1  0
  7  8  1  0
  8  9  1  0
  9 10  1  0
 10 11  1  0
 11 12  1  0
 12 13  1  0
 13 14  1  0
 14 15  1  0
 15 16  1  0
 16 17  2  0
 16 18  1  0
 18 19  1  0
 19 20  1  0
 20 21  1  0
 21 22  1  0
 22 23  1  0
 23 24  2  0
 23 25  1  0
 23 26  1  0
 26 27  1  0
 27 28  1  0
 28 29  1  0
 29 30  1  0
 29 31  1  0
 29 32  1  0
 20 33  1  0
 33 34  1  0
 34 35  2  0
 34 36  1  0
 36 37  1  0
 37 38  1  0
 38 39  1  0
 39 40  1  0
 40 41  1  0
 41 42  1  0
 42 43  1  0
 43 44  1  0
 44 45  1  0
 45 46  1  0
 46 47  1  0
 47 48  1  0
 48 49  1  0
 49 50  1  0
  1 51  1  0
  1 52  1  0
  1 53  1  0
  2 54  1  0
  2 55  1  0
  3 56  1  0
  3 57  1  0
  4 58  1  0
  4 59  1  0
  5 60  1  0
  5 61  1  0
  6 62  1  0
  6 63  1  0
  7 64  1  0
  7 65  1  0
  8 66  1  0
  8 67  1  0
  9 68  1  0
  9 69  1  0
 10 70  1  0
 10 71  1  0
 11 72  1  0
 11 73  1  0
 12 74  1  0
 12 75  1  0
 13 76  1  0
 13 77  1  0
 14 78  1  0
 14 79  1  0
 15 80  1  0
 15 81  1  0
 19 82  1  0
 19 83  1  0
 20 84  1  1
 21 85  1  0
 21 86  1  0
 27 87  1  0
 27 88  1  0
 28 89  1  0
 28 90  1  0
 30 91  1  0
 30 92  1  0
 30 93  1  0
 31 94  1  0
 31 95  1  0
 31 96  1  0
 32 97  1  0
 32 98  1  0
 32 99  1  0
 36100  1  0
 36101  1  0
 37102  1  0
 37103  1  0
 38104  1  0
 38105  1  0
 39106  1  0
 39107  1  0
 40108  1  0
 40109  1  0
 41110  1  0
 41111  1  0
 42112  1  0
 42113  1  0
 43114  1  0
 43115  1  0
 44116  1  0
 44117  1  0
 45118  1  0
 45119  1  0
 46120  1  0
 46121  1  0
 47122  1  0
 47123  1  0
 48124  1  0
 48125  1  0
 49126  1  0
 49127  1  0
 50128  1  0
 50129  1  0
 50130  1  0
M  CHG  2  25  -1  29   1
M  END
$$$$
