
     RDKit          3D

 78 81  0  0  0  0  0  0  0  0999 V2000
   -5.1035    0.6796    3.2570 C   0  0  0  0  0  0  0  0  0  0  0  0
   -4.0115    0.0671    2.3891 C   0  0  0  0  0  0  0  0  0  0  0  0
   -3.4873    1.0650    1.3129 C   0  0  2  0  0  0  0  0  0  0  0  0
   -3.7095    0.5933   -0.1692 C   0  0  2  0  0  0  0  0  0  0  0  0
   -5.2145    0.3687   -0.4429 C   0  0  0  0  0  0  0  0  0  0  0  0
   -5.4726   -0.4518   -1.6944 C   0  0  1  0  0  0  0  0  0  0  0  0
   -4.8559   -1.8463   -1.5802 C   0  0  0  0  0  0  0  0  0  0  0  0
   -3.6060   -1.9161   -0.6908 C   0  0  0  0  0  0  0  0  0  0  0  0
   -2.7797   -0.6032   -0.6319 C   0  0  2  0  0  0  0  0  0  0  0  0
   -1.5746   -0.7377    0.3705 C   0  0  1  0  0  0  0  0  0  0  0  0
   -0.4719   -1.7729    0.0230 C   0  0  0  0  0  0  0  0  0  0  0  0
    0.8143   -1.2202   -0.6081 C   0  0  1  0  0  0  0  0  0  0  0  0
    1.3910    0.0471    0.0917 C   0  0  1  0  0  0  0  0  0  0  0  0
    0.4196    0.5009    1.2305 C   0  0  2  0  0  0  0  0  0  0  0  0
   -1.0042    0.6735    0.7047 C   0  0  2  0  0  0  0  0  0  0  0  0
   -2.0047    1.4886    1.5468 C   0  0  2  0  0  0  0  0  0  0  0  0
   -1.6660    1.4782    2.9286 O   0  0  0  0  0  0  0  0  0  0  0  0
    1.1693    1.6356    1.9066 C   0  0  0  0  0  0  0  0  0  0  0  0
    2.6379    1.1651    1.8758 C   0  0  0  0  0  0  0  0  0  0  0  0
    2.6944   -0.0846    0.9454 C   0  0  2  0  0  0  0  0  0  0  0  0
    4.0465   -0.3286    0.1952 C   0  0  2  0  0  0  0  0  0  0  0  0
    4.8728   -1.3622    0.9808 C   0  0  0  0  0  0  0  0  0  0  0  0
    4.8908    0.9384   -0.0882 C   0  0  0  0  0  0  0  0  0  0  0  0
    6.0993    0.8035   -1.0441 C   0  0  2  0  0  0  0  0  0  0  0  0
    5.7454    0.1048   -2.3540 C   0  0  0  0  0  0  0  0  0  0  0  0
    7.3190    0.1640   -0.4059 C   0  0  0  0  0  0  0  0  0  0  0  0
    7.9749   -0.7663   -0.8405 O   0  0  0  0  0  0  0  0  0  0  0  0
    7.6872    0.7654    0.7409 O   0  0  0  0  0  0  0  0  0  0  0  0
    1.5896    1.1186   -1.0194 C   0  0  0  0  0  0  0  0  0  0  0  0
    1.7569   -2.2911   -0.6569 O   0  0  0  0  0  0  0  0  0  0  0  0
   -2.2262   -0.3316   -2.0609 C   0  0  0  0  0  0  0  0  0  0  0  0
   -6.8753   -0.5577   -1.9059 O   0  0  0  0  0  0  0  0  0  0  0  0
   -5.9791    0.9415    2.6518 H   0  0  0  0  0  0  0  0  0  0  0  0
   -5.4344   -0.0380    4.0135 H   0  0  0  0  0  0  0  0  0  0  0  0
   -4.7516    1.5854    3.7618 H   0  0  0  0  0  0  0  0  0  0  0  0
   -4.4139   -0.8450    1.9375 H   0  0  0  0  0  0  0  0  0  0  0  0
   -3.2092   -0.2746    3.0538 H   0  0  0  0  0  0  0  0  0  0  0  0
   -4.0744    1.9896    1.4262 H   0  0  0  0  0  0  0  0  0  0  0  0
   -3.4235    1.4580   -0.7868 H   0  0  0  0  0  0  0  0  0  0  0  0
   -5.7132   -0.1304    0.3953 H   0  0  0  0  0  0  0  0  0  0  0  0
   -5.7208    1.3401   -0.5213 H   0  0  0  0  0  0  0  0  0  0  0  0
   -5.0690    0.0782   -2.5622 H   0  0  0  0  0  0  0  0  0  0  0  0
   -4.6009   -2.1947   -2.5890 H   0  0  0  0  0  0  0  0  0  0  0  0
   -5.5959   -2.5692   -1.2106 H   0  0  0  0  0  0  0  0  0  0  0  0
   -2.9885   -2.7522   -1.0396 H   0  0  0  0  0  0  0  0  0  0  0  0
   -3.9218   -2.1933    0.3212 H   0  0  0  0  0  0  0  0  0  0  0  0
   -1.9973   -1.1447    1.2990 H   0  0  0  0  0  0  0  0  0  0  0  0
   -0.1844   -2.2796    0.9548 H   0  0  0  0  0  0  0  0  0  0  0  0
   -0.8637   -2.5878   -0.5939 H   0  0  0  0  0  0  0  0  0  0  0  0
    0.5674   -0.9864   -1.6529 H   0  0  0  0  0  0  0  0  0  0  0  0
    0.3714   -0.2929    1.9960 H   0  0  0  0  0  0  0  0  0  0  0  0
   -0.9328    1.2340   -0.2309 H   0  0  0  0  0  0  0  0  0  0  0  0
   -1.9056    2.5342    1.2234 H   0  0  0  0  0  0  0  0  0  0  0  0
   -2.3060    2.0509    3.3884 H   0  0  0  0  0  0  0  0  0  0  0  0
    1.0481    2.5805    1.3673 H   0  0  0  0  0  0  0  0  0  0  0  0
    0.8427    1.8008    2.9379 H   0  0  0  0  0  0  0  0  0  0  0  0
    3.2543    2.0011    1.5388 H   0  0  0  0  0  0  0  0  0  0  0  0
    2.9816    0.8940    2.8816 H   0  0  0  0  0  0  0  0  0  0  0  0
    2.5226   -0.9586    1.5950 H   0  0  0  0  0  0  0  0  0  0  0  0
    3.8101   -0.7991   -0.7625 H   0  0  0  0  0  0  0  0  0  0  0  0
    5.7227   -1.7290    0.3967 H   0  0  0  0  0  0  0  0  0  0  0  0
    4.2696   -2.2451    1.2284 H   0  0  0  0  0  0  0  0  0  0  0  0
    5.2515   -0.9378    1.9145 H   0  0  0  0  0  0  0  0  0  0  0  0
    5.2402    1.3471    0.8659 H   0  0  0  0  0  0  0  0  0  0  0  0
    4.2403    1.7068   -0.5245 H   0  0  0  0  0  0  0  0  0  0  0  0
    6.4172    1.8224   -1.3103 H   0  0  0  0  0  0  0  0  0  0  0  0
    5.5573   -0.9638   -2.2107 H   0  0  0  0  0  0  0  0  0  0  0  0
    6.5724    0.1939   -3.0682 H   0  0  0  0  0  0  0  0  0  0  0  0
    4.8578    0.5538   -2.8129 H   0  0  0  0  0  0  0  0  0  0  0  0
    8.4762    0.2593    1.0288 H   0  0  0  0  0  0  0  0  0  0  0  0
    0.6632    1.3254   -1.5697 H   0  0  0  0  0  0  0  0  0  0  0  0
    2.3118    0.7701   -1.7668 H   0  0  0  0  0  0  0  0  0  0  0  0
    1.9558    2.0768   -0.6411 H   0  0  0  0  0  0  0  0  0  0  0  0
    2.3630   -2.1120   -1.3977 H   0  0  0  0  0  0  0  0  0  0  0  0
   -3.0121   -0.1653   -2.7969 H   0  0  0  0  0  0  0  0  0  0  0  0
   -1.5873    0.5559   -2.0999 H   0  0  0  0  0  0  0  0  0  0  0  0
   -1.6414   -1.1802   -2.4284 H   0  0  0  0  0  0  0  0  0  0  0  0
   -7.0159   -1.1072   -2.6957 H   0  0  0  0  0  0  0  0  0  0  0  0
  1  2  1  0
  2  3  1  0
  3  4  1  0
  4  5  1  0
  5  6  1  0
  6  7  1  0
  7  8  1  0
  8  9  1  0
  9 10  1  0
 10 11  1  0
 11 12  1  0
 12 13  1  0
 13 14  1  0
 14 15  1  0
 15 16  1  0
 16 17  1  0
 14 18  1  0
 18 19  1  0
 19 20  1  0
 20 21  1  0
 21 22  1  0
 21 23  1  0
 23 24  1  0
 24 25  1  0
 24 26  1  0
 26 27  2  0
 26 28  1  0
 13 29  1  6
 12 30  1  0
  9 31  1  6
  6 32  1  0
 16  3  1  0
  9  4  1  0
 15 10  1  0
 20 13  1  0
  1 33  1  0
  1 34  1  0
  1 35  1  0
  2 36  1  0
  2 37  1  0
  3 38  1  6
  4 39  1  6
  5 40  1  0
  5 41  1  0
  6 42  1  6
  7 43  1  0
  7 44  1  0
  8 45  1  0
  8 46  1  0
 10 47  1  1
 11 48  1  0
 11 49  1  0
 12 50  1  6
 14 51  1  1
 15 52  1  6
 16 53  1  6
 17 54  1  0
 18 55  1  0
 18 56  1  0
 19 57  1  0
 19 58  1  0
 20 59  1  1
 21 60  1  6
 22 61  1  0
 22 62  1  0
 22 63  1  0
 23 64  1  0
 23 65  1  0
 24 66  1  6
 25 67  1  0
 25 68  1  0
 25 69  1  0
 28 70  1  0
 29 71  1  0
 29 72  1  0
 29 73  1  0
 30 74  1  0
 31 75  1  0
 31 76  1  0
 31 77  1  0
 32 78  1  0
M  END
$$$$
