
     RDKit          3D

 47 48  0  0  0  0  0  0  0  0999 V2000
   -1.1746   -2.0238    1.2781 C   0  0  0  0  0  0  0  0  0  0  0  0
   -1.0066   -1.0373    0.1009 C   0  0  0  0  0  0  0  0  0  0  0  0
   -1.9693   -1.3301   -1.0742 C   0  0  0  0  0  0  0  0  0  0  0  0
   -3.4665   -1.2768   -0.7263 C   0  0  0  0  0  0  0  0  0  0  0  0
   -3.9403    0.0720   -0.2342 C   0  0  0  0  0  0  0  0  0  0  0  0
   -4.2085    1.1072   -1.1414 C   0  0  0  0  0  0  0  0  0  0  0  0
   -4.6463    2.3532   -0.6944 C   0  0  0  0  0  0  0  0  0  0  0  0
   -4.8061    2.5864    0.6721 C   0  0  0  0  0  0  0  0  0  0  0  0
   -4.5437    1.5642    1.5882 C   0  0  0  0  0  0  0  0  0  0  0  0
   -4.1142    0.3161    1.1372 C   0  0  0  0  0  0  0  0  0  0  0  0
    0.4131   -1.1215   -0.2918 N   0  0  0  0  0  0  0  0  0  0  0  0
    0.9289   -0.1367   -1.2763 C   0  0  0  0  0  0  0  0  0  0  0  0
    0.5542    1.3287   -1.0114 C   0  0  0  0  0  0  0  0  0  0  0  0
    2.4859   -0.3159   -1.4647 C   0  0  0  0  0  0  0  0  0  0  0  0
    3.4468   -0.0060   -0.3278 C   0  0  0  0  0  0  0  0  0  0  0  0
    4.8323   -0.1157   -0.5874 C   0  0  0  0  0  0  0  0  0  0  0  0
    5.7853    0.0979    0.4179 C   0  0  0  0  0  0  0  0  0  0  0  0
    5.3605    0.4390    1.6960 C   0  0  0  0  0  0  0  0  0  0  0  0
    4.0038    0.5753    1.9749 C   0  0  0  0  0  0  0  0  0  0  0  0
    3.0573    0.3388    0.9748 C   0  0  0  0  0  0  0  0  0  0  0  0
    6.2434    0.6303    2.7093 O   0  0  0  0  0  0  0  0  0  0  0  0
    2.7056   -1.6893   -1.8416 O   0  0  0  0  0  0  0  0  0  0  0  0
   -2.0831   -2.6316    1.2054 H   0  0  0  0  0  0  0  0  0  0  0  0
   -0.3277   -2.7278    1.3695 H   0  0  0  0  0  0  0  0  0  0  0  0
   -1.2193   -1.4567    2.2264 H   0  0  0  0  0  0  0  0  0  0  0  0
   -1.2028   -0.0344    0.4882 H   0  0  0  0  0  0  0  0  0  0  0  0
   -1.7868   -0.6015   -1.8765 H   0  0  0  0  0  0  0  0  0  0  0  0
   -1.7532   -2.3166   -1.4958 H   0  0  0  0  0  0  0  0  0  0  0  0
   -3.7374   -2.0520    0.0004 H   0  0  0  0  0  0  0  0  0  0  0  0
   -4.0499   -1.5272   -1.6209 H   0  0  0  0  0  0  0  0  0  0  0  0
   -4.0834    0.9429   -2.2099 H   0  0  0  0  0  0  0  0  0  0  0  0
   -4.8565    3.1471   -1.4075 H   0  0  0  0  0  0  0  0  0  0  0  0
   -5.1480    3.5559    1.0227 H   0  0  0  0  0  0  0  0  0  0  0  0
   -4.6675    1.7497    2.6513 H   0  0  0  0  0  0  0  0  0  0  0  0
   -3.9232   -0.4665    1.8635 H   0  0  0  0  0  0  0  0  0  0  0  0
    0.6000   -2.0499   -0.6821 H   0  0  0  0  0  0  0  0  0  0  0  0
    0.4948   -0.4108   -2.2403 H   0  0  0  0  0  0  0  0  0  0  0  0
    0.3100    1.5363    0.0430 H   0  0  0  0  0  0  0  0  0  0  0  0
   -0.3352    1.5965   -1.6117 H   0  0  0  0  0  0  0  0  0  0  0  0
    1.3624    2.0204   -1.3039 H   0  0  0  0  0  0  0  0  0  0  0  0
    2.7765    0.3044   -2.3263 H   0  0  0  0  0  0  0  0  0  0  0  0
    5.1734   -0.3921   -1.5827 H   0  0  0  0  0  0  0  0  0  0  0  0
    6.8432   -0.0191    0.1840 H   0  0  0  0  0  0  0  0  0  0  0  0
    3.6825    0.8348    2.9808 H   0  0  0  0  0  0  0  0  0  0  0  0
    2.0074    0.4149    1.2434 H   0  0  0  0  0  0  0  0  0  0  0  0
    7.1287    0.3953    2.3926 H   0  0  0  0  0  0  0  0  0  0  0  0
    2.8542   -2.1680   -1.0020 H   0  0  0  0  0  0  0  0  0  0  0  0
  1  2  1  0
  2  3  1  0
  3  4  1  0
  4  5  1  0
  5  6  2  0
  6  7  1  0
  7  8  2  0
  8  9  1  0
  9 10  2  0
  2 11  1  0
 11 12  1  0
 12 13  1  0
 12 14  1  0
 14 15  1  0
 15 16  2  0
 16 17  1  0
 17 18  2  0
 18 19  1  0
 19 20  2  0
 18 21  1  0
 14 22  1  0
 10  5  1  0
 20 15  1  0
  1 23  1  0
  1 24  1  0
  1 25  1  0
  2 26  1  0
  3 27  1  0
  3 28  1  0
  4 29  1  0
  4 30  1  0
  6 31  1  0
  7 32  1  0
  8 33  1  0
  9 34  1  0
 10 35  1  0
 11 36  1  0
 12 37  1  0
 13 38  1  0
 13 39  1  0
 13 40  1  0
 14 41  1  0
 16 42  1  0
 17 43  1  0
 19 44  1  0
 20 45  1  0
 21 46  1  0
 22 47  1  0
M  END
$$$$
