
     RDKit          3D

101108  0  0  0  0  0  0  0  0999 V2000
    2.7846   -2.7708   -1.4577 C   0  0  0  0  0  0  0  0  0  0  0  0
    1.6354   -2.0166   -1.6259 C   0  0  0  0  0  0  0  0  0  0  0  0
    1.6464   -0.6664   -1.2731 C   0  0  0  0  0  0  0  0  0  0  0  0
    2.8644   -0.0731   -0.8693 C   0  0  0  0  0  0  0  0  0  0  0  0
    4.0128   -0.8570   -0.6205 C   0  0  0  0  0  0  0  0  0  0  0  0
    3.9499   -2.2085   -0.9164 C   0  0  0  0  0  0  0  0  0  0  0  0
    4.9423   -0.2301    0.1255 O   0  0  0  0  0  0  0  0  0  0  0  0
    6.3861   -0.5907   -0.0780 C   0  0  1  0  0  0  0  0  0  0  0  0
    7.1212   -0.2848    1.2401 C   0  0  1  0  0  0  0  0  0  0  0  0
    8.3607   -1.1837    1.4579 C   0  0  2  0  0  0  0  0  0  0  0  0
    9.0306   -1.4406    0.1092 C   0  0  1  0  0  0  0  0  0  0  0  0
    8.0294   -2.1043   -0.8626 C   0  0  2  0  0  0  0  0  0  0  0  0
    6.6513   -1.9326   -0.4482 O   0  0  0  0  0  0  0  0  0  0  0  0
    8.3514   -3.5974   -1.0274 C   0  0  0  0  0  0  0  0  0  0  0  0
    7.8239   -4.4188    0.0238 O   0  0  0  0  0  0  0  0  0  0  0  0
    9.4735   -0.2050   -0.4765 O   0  0  0  0  0  0  0  0  0  0  0  0
    8.0759   -2.4132    2.1079 O   0  0  0  0  0  0  0  0  0  0  0  0
    7.5826    1.0795    1.2147 O   0  0  0  0  0  0  0  0  0  0  0  0
    2.8561    1.4082   -0.7422 C   0  0  0  0  0  0  0  0  0  0  0  0
    3.7373    2.0291   -0.1791 O   0  0  0  0  0  0  0  0  0  0  0  0
    1.7150    2.1628   -1.2834 C   0  0  0  0  0  0  0  0  0  0  0  0
    0.4973    1.5142   -1.5018 C   0  0  0  0  0  0  0  0  0  0  0  0
    0.3324    0.0704   -1.1147 C   0  0  2  0  0  0  0  0  0  0  0  0
   -0.1839   -0.1062    0.3884 C   0  0  2  0  0  0  0  0  0  0  0  0
   -1.3821   -1.0606    0.4528 C   0  0  0  0  0  0  0  0  0  0  0  0
   -2.6883   -0.5825    0.4448 C   0  0  0  0  0  0  0  0  0  0  0  0
   -3.7893   -1.4369    0.5606 C   0  0  0  0  0  0  0  0  0  0  0  0
   -3.5668   -2.8112    0.6141 C   0  0  0  0  0  0  0  0  0  0  0  0
   -2.2713   -3.3063    0.5927 C   0  0  0  0  0  0  0  0  0  0  0  0
   -1.1797   -2.4453    0.5195 C   0  0  0  0  0  0  0  0  0  0  0  0
   -4.9963   -0.8406    0.7289 O   0  0  0  0  0  0  0  0  0  0  0  0
   -6.2341   -1.5225    0.5418 C   0  0  1  0  0  0  0  0  0  0  0  0
   -7.2531   -0.7304    1.3952 C   0  0  1  0  0  0  0  0  0  0  0  0
   -8.6563   -0.7597    0.7846 C   0  0  2  0  0  0  0  0  0  0  0  0
   -8.8716   -2.0685    0.0252 C   0  0  1  0  0  0  0  0  0  0  0  0
   -7.8183   -2.2457   -1.0761 C   0  0  2  0  0  0  0  0  0  0  0  0
   -6.6267   -1.4648   -0.8325 O   0  0  0  0  0  0  0  0  0  0  0  0
   -8.3709   -1.8021   -2.4278 C   0  0  0  0  0  0  0  0  0  0  0  0
   -7.4065   -2.0755   -3.4429 O   0  0  0  0  0  0  0  0  0  0  0  0
   -8.7656   -3.1677    0.9400 O   0  0  0  0  0  0  0  0  0  0  0  0
   -8.8788    0.3670   -0.0647 O   0  0  0  0  0  0  0  0  0  0  0  0
   -7.3033   -1.2850    2.7180 O   0  0  0  0  0  0  0  0  0  0  0  0
   -2.9001    0.8851    0.4311 C   0  0  0  0  0  0  0  0  0  0  0  0
   -3.9202    1.4052   -0.0038 O   0  0  0  0  0  0  0  0  0  0  0  0
   -1.8217    1.7421    0.9387 C   0  0  0  0  0  0  0  0  0  0  0  0
   -0.5234    1.2365    1.0313 C   0  0  0  0  0  0  0  0  0  0  0  0
    0.4727    2.0414    1.5899 C   0  0  0  0  0  0  0  0  0  0  0  0
    0.1919    3.3522    1.9845 C   0  0  0  0  0  0  0  0  0  0  0  0
   -1.1074    3.8437    1.8606 C   0  0  0  0  0  0  0  0  0  0  0  0
   -2.1130    3.0367    1.3434 C   0  0  0  0  0  0  0  0  0  0  0  0
   -3.3509    3.5991    1.1905 O   0  0  0  0  0  0  0  0  0  0  0  0
    1.2952    4.2005    2.5021 C   0  0  0  0  0  0  0  0  0  0  0  0
    2.4252    3.8264    2.7515 O   0  0  0  0  0  0  0  0  0  0  0  0
    0.9206    5.4851    2.6951 O   0  0  0  0  0  0  0  0  0  0  0  0
   -0.6026    2.2671   -1.9487 C   0  0  0  0  0  0  0  0  0  0  0  0
   -0.4791    3.6339   -2.1941 C   0  0  0  0  0  0  0  0  0  0  0  0
    0.7533    4.2565   -2.0005 C   0  0  0  0  0  0  0  0  0  0  0  0
    1.8537    3.5370   -1.5494 C   0  0  0  0  0  0  0  0  0  0  0  0
    3.0219    4.2093   -1.2974 O   0  0  0  0  0  0  0  0  0  0  0  0
   -1.6527    4.4544   -2.6411 C   0  0  0  0  0  0  0  0  0  0  0  0
   -2.1938    5.2080   -1.5573 O   0  0  0  0  0  0  0  0  0  0  0  0
    2.7606   -3.8397   -1.7001 H   0  0  0  0  0  0  0  0  0  0  0  0
    0.7360   -2.4907   -1.9998 H   0  0  0  0  0  0  0  0  0  0  0  0
    4.7645   -2.8721   -0.6766 H   0  0  0  0  0  0  0  0  0  0  0  0
    6.7249    0.0866   -0.8648 H   0  0  0  0  0  0  0  0  0  0  0  0
    6.4309   -0.3965    2.0819 H   0  0  0  0  0  0  0  0  0  0  0  0
    9.0760   -0.6555    2.1039 H   0  0  0  0  0  0  0  0  0  0  0  0
    9.9160   -2.0558    0.2108 H   0  0  0  0  0  0  0  0  0  0  0  0
    8.1469   -1.6394   -1.8547 H   0  0  0  0  0  0  0  0  0  0  0  0
    7.9361   -3.9524   -1.9792 H   0  0  0  0  0  0  0  0  0  0  0  0
    9.4433   -3.7459   -1.0698 H   0  0  0  0  0  0  0  0  0  0  0  0
    7.3213   -5.1342   -0.4174 H   0  0  0  0  0  0  0  0  0  0  0  0
    9.3040    0.5221    0.1556 H   0  0  0  0  0  0  0  0  0  0  0  0
    7.3935   -2.2735    2.7715 H   0  0  0  0  0  0  0  0  0  0  0  0
    7.4045    1.4636    2.0948 H   0  0  0  0  0  0  0  0  0  0  0  0
   -0.4166   -0.3801   -1.8117 H   0  0  0  0  0  0  0  0  0  0  0  0
    0.6100   -0.5601    0.9913 H   0  0  0  0  0  0  0  0  0  0  0  0
   -4.3818   -3.5088    0.7336 H   0  0  0  0  0  0  0  0  0  0  0  0
   -2.1073   -4.3763    0.6750 H   0  0  0  0  0  0  0  0  0  0  0  0
   -0.1865   -2.8621    0.5462 H   0  0  0  0  0  0  0  0  0  0  0  0
   -6.1768   -2.5595    0.8777 H   0  0  0  0  0  0  0  0  0  0  0  0
   -6.9417    0.3224    1.4791 H   0  0  0  0  0  0  0  0  0  0  0  0
   -9.3969   -0.6982    1.5935 H   0  0  0  0  0  0  0  0  0  0  0  0
   -9.8740   -2.1026   -0.3993 H   0  0  0  0  0  0  0  0  0  0  0  0
   -7.5131   -3.2966   -1.1405 H   0  0  0  0  0  0  0  0  0  0  0  0
   -8.5545   -0.7269   -2.4467 H   0  0  0  0  0  0  0  0  0  0  0  0
   -9.3000   -2.3316   -2.6750 H   0  0  0  0  0  0  0  0  0  0  0  0
   -6.5959   -1.6173   -3.1583 H   0  0  0  0  0  0  0  0  0  0  0  0
   -9.1082   -2.8716    1.8059 H   0  0  0  0  0  0  0  0  0  0  0  0
   -8.0076    0.7372   -0.3145 H   0  0  0  0  0  0  0  0  0  0  0  0
   -6.6631   -0.7621    3.2487 H   0  0  0  0  0  0  0  0  0  0  0  0
    1.4886    1.6723    1.6844 H   0  0  0  0  0  0  0  0  0  0  0  0
   -1.3424    4.8509    2.1544 H   0  0  0  0  0  0  0  0  0  0  0  0
   -3.9592    2.9916    0.6969 H   0  0  0  0  0  0  0  0  0  0  0  0
    1.6460    5.9736    3.1626 H   0  0  0  0  0  0  0  0  0  0  0  0
   -1.5747    1.7907   -2.1005 H   0  0  0  0  0  0  0  0  0  0  0  0
    0.8446    5.3188   -2.1910 H   0  0  0  0  0  0  0  0  0  0  0  0
    3.6491    3.6516   -0.7915 H   0  0  0  0  0  0  0  0  0  0  0  0
   -1.3487    5.1667   -3.4327 H   0  0  0  0  0  0  0  0  0  0  0  0
   -2.4575    3.8396   -3.0508 H   0  0  0  0  0  0  0  0  0  0  0  0
   -1.5773    5.1750   -0.8029 H   0  0  0  0  0  0  0  0  0  0  0  0
  1  2  2  0
  2  3  1  0
  3  4  2  0
  4  5  1  0
  5  6  2  0
  5  7  1  0
  7  8  1  0
  8  9  1  0
  9 10  1  0
 10 11  1  0
 11 12  1  0
 12 13  1  0
 12 14  1  0
 14 15  1  0
 11 16  1  0
 10 17  1  0
  9 18  1  0
  4 19  1  0
 19 20  2  0
 19 21  1  0
 21 22  2  0
 22 23  1  0
 23 24  1  0
 24 25  1  0
 25 26  2  0
 26 27  1  0
 27 28  2  0
 28 29  1  0
 29 30  2  0
 27 31  1  0
 31 32  1  0
 32 33  1  0
 33 34  1  0
 34 35  1  0
 35 36  1  0
 36 37  1  0
 36 38  1  0
 38 39  1  0
 35 40  1  0
 34 41  1  0
 33 42  1  0
 26 43  1  0
 43 44  2  0
 43 45  1  0
 45 46  2  0
 46 47  1  0
 47 48  2  0
 48 49  1  0
 49 50  2  0
 50 51  1  0
 48 52  1  0
 52 53  2  0
 52 54  1  0
 22 55  1  0
 55 56  2  0
 56 57  1  0
 57 58  2  0
 58 59  1  0
 56 60  1  0
 60 61  1  0
  6  1  1  0
 23  3  1  0
 13  8  1  0
 58 21  1  0
 46 24  1  0
 30 25  1  0
 37 32  1  0
 50 45  1  0
  1 62  1  0
  2 63  1  0
  6 64  1  0
  8 65  1  6
  9 66  1  1
 10 67  1  1
 11 68  1  1
 12 69  1  6
 14 70  1  0
 14 71  1  0
 15 72  1  0
 16 73  1  0
 17 74  1  0
 18 75  1  0
 23 76  1  6
 24 77  1  1
 28 78  1  0
 29 79  1  0
 30 80  1  0
 32 81  1  1
 33 82  1  1
 34 83  1  1
 35 84  1  6
 36 85  1  6
 38 86  1  0
 38 87  1  0
 39 88  1  0
 40 89  1  0
 41 90  1  0
 42 91  1  0
 47 92  1  0
 49 93  1  0
 51 94  1  0
 54 95  1  0
 55 96  1  0
 57 97  1  0
 59 98  1  0
 60 99  1  0
 60100  1  0
 61101  1  0
M  END
$$$$
