
     RDKit          3D

 56 60  0  0  0  0  0  0  0  0999 V2000
   10.3497    0.8864   -0.1506 C   0  0  0  0  0  0  0  0  0  0  0  0
    9.0320    1.2310    0.1682 C   0  0  0  0  0  0  0  0  0  0  0  0
    8.0004    0.2834    0.0838 C   0  0  0  0  0  0  0  0  0  0  0  0
    8.3107   -1.0181   -0.3099 C   0  0  0  0  0  0  0  0  0  0  0  0
    9.6258   -1.3516   -0.6261 C   0  0  0  0  0  0  0  0  0  0  0  0
   10.6465   -0.4130   -0.5520 C   0  0  0  0  0  0  0  0  0  0  0  0
    9.9146   -2.6005   -1.0111 F   0  0  0  0  0  0  0  0  0  0  0  0
    6.7009    0.7092    0.4328 N   0  0  0  0  0  0  0  0  0  0  0  0
    5.5110    0.0253    0.2270 C   0  0  0  0  0  0  0  0  0  0  0  0
    5.4034   -1.0214   -0.3959 O   0  0  0  0  0  0  0  0  0  0  0  0
    4.4621    0.7056    0.8308 N   0  0  0  0  0  0  0  0  0  0  0  0
    3.0856    0.4202    0.7201 C   0  0  0  0  0  0  0  0  0  0  0  0
    2.5486   -0.4561   -0.2259 C   0  0  0  0  0  0  0  0  0  0  0  0
    1.1674   -0.6717   -0.2934 C   0  0  0  0  0  0  0  0  0  0  0  0
    0.3088   -0.0080    0.5857 C   0  0  0  0  0  0  0  0  0  0  0  0
    0.8375    0.8755    1.5307 C   0  0  0  0  0  0  0  0  0  0  0  0
    2.2182    1.0899    1.5933 C   0  0  0  0  0  0  0  0  0  0  0  0
   -1.1275   -0.2165    0.5044 C   0  0  0  0  0  0  0  0  0  0  0  0
   -1.7292   -1.0914    1.3796 C   0  0  0  0  0  0  0  0  0  0  0  0
   -3.4017   -1.2062    1.1280 S   0  0  0  0  0  0  0  0  0  0  0  0
   -3.3790   -0.0526   -0.1646 C   0  0  0  0  0  0  0  0  0  0  0  0
   -2.0689    0.3944   -0.4201 C   0  0  0  0  0  0  0  0  0  0  0  0
   -1.8715    1.3219   -1.4800 C   0  0  0  0  0  0  0  0  0  0  0  0
   -2.9200    1.7662   -2.2030 N   0  0  0  0  0  0  0  0  0  0  0  0
   -4.1582    1.3188   -1.9311 C   0  0  0  0  0  0  0  0  0  0  0  0
   -4.4663    0.4167   -0.9280 C   0  0  0  0  0  0  0  0  0  0  0  0
   -5.8240   -0.0215   -0.7130 C   0  0  0  0  0  0  0  0  0  0  0  0
   -6.5273    0.1159    0.4656 C   0  0  0  0  0  0  0  0  0  0  0  0
   -7.7750   -0.3817    0.2228 N   0  0  0  0  0  0  0  0  0  0  0  0
   -7.9440   -0.8110   -1.0472 N   0  0  0  0  0  0  0  0  0  0  0  0
   -6.7570   -0.5802   -1.6151 C   0  0  0  0  0  0  0  0  0  0  0  0
   -8.8824   -0.4615    1.1631 C   0  0  0  0  0  0  0  0  0  0  0  0
   -9.4437   -1.8782    1.2592 C   0  0  0  0  0  0  0  0  0  0  0  0
  -10.1866   -2.2276    0.0889 O   0  0  0  0  0  0  0  0  0  0  0  0
   -0.6449    1.8406   -1.8549 N   0  0  0  0  0  0  0  0  0  0  0  0
   11.1399    1.6314   -0.0899 H   0  0  0  0  0  0  0  0  0  0  0  0
    8.8244    2.2544    0.4710 H   0  0  0  0  0  0  0  0  0  0  0  0
    7.5625   -1.7999   -0.3772 H   0  0  0  0  0  0  0  0  0  0  0  0
   11.6623   -0.7010   -0.8065 H   0  0  0  0  0  0  0  0  0  0  0  0
    6.6051    1.6818    0.6838 H   0  0  0  0  0  0  0  0  0  0  0  0
    4.7257    1.3503    1.5603 H   0  0  0  0  0  0  0  0  0  0  0  0
    3.1781   -0.9819   -0.9384 H   0  0  0  0  0  0  0  0  0  0  0  0
    0.7727   -1.3536   -1.0448 H   0  0  0  0  0  0  0  0  0  0  0  0
    0.1812    1.4047    2.2189 H   0  0  0  0  0  0  0  0  0  0  0  0
    2.6016    1.7834    2.3374 H   0  0  0  0  0  0  0  0  0  0  0  0
   -1.2593   -1.6802    2.1562 H   0  0  0  0  0  0  0  0  0  0  0  0
   -4.9344    1.7360   -2.5684 H   0  0  0  0  0  0  0  0  0  0  0  0
   -6.2511    0.5193    1.4310 H   0  0  0  0  0  0  0  0  0  0  0  0
   -6.6197   -0.8298   -2.6598 H   0  0  0  0  0  0  0  0  0  0  0  0
   -9.6399    0.2489    0.8089 H   0  0  0  0  0  0  0  0  0  0  0  0
   -8.5105   -0.1333    2.1414 H   0  0  0  0  0  0  0  0  0  0  0  0
   -8.6492   -2.6213    1.3977 H   0  0  0  0  0  0  0  0  0  0  0  0
  -10.1301   -1.9455    2.1095 H   0  0  0  0  0  0  0  0  0  0  0  0
   -9.6054   -2.0149   -0.6751 H   0  0  0  0  0  0  0  0  0  0  0  0
   -0.7540    2.6614   -2.4366 H   0  0  0  0  0  0  0  0  0  0  0  0
    0.0841    1.8577   -1.1555 H   0  0  0  0  0  0  0  0  0  0  0  0
  1  2  2  0
  2  3  1  0
  3  4  2  0
  4  5  1  0
  5  6  2  0
  5  7  1  0
  3  8  1  0
  8  9  1  0
  9 10  2  0
  9 11  1  0
 11 12  1  0
 12 13  2  0
 13 14  1  0
 14 15  2  0
 15 16  1  0
 16 17  2  0
 15 18  1  0
 18 19  2  0
 19 20  1  0
 20 21  1  0
 21 22  2  0
 22 23  1  0
 23 24  2  0
 24 25  1  0
 25 26  2  0
 26 27  1  0
 27 28  2  0
 28 29  1  0
 29 30  1  0
 30 31  2  0
 29 32  1  0
 32 33  1  0
 33 34  1  0
 23 35  1  0
  6  1  1  0
 17 12  1  0
 22 18  1  0
 26 21  1  0
 31 27  1  0
  1 36  1  0
  2 37  1  0
  4 38  1  0
  6 39  1  0
  8 40  1  0
 11 41  1  0
 13 42  1  0
 14 43  1  0
 16 44  1  0
 17 45  1  0
 19 46  1  0
 25 47  1  0
 28 48  1  0
 31 49  1  0
 32 50  1  0
 32 51  1  0
 33 52  1  0
 33 53  1  0
 34 54  1  0
 35 55  1  0
 35 56  1  0
M  END
$$$$
