
     RDKit          3D

120128  0  0  0  0  0  0  0  0999 V2000
   -3.3325    6.3095   -0.1190 C   0  0  0  0  0  0  0  0  0  0  0  0
   -3.8988    4.9901    0.3489 C   0  0  0  0  0  0  0  0  0  0  0  0
   -3.2663    3.7942   -0.0387 C   0  0  0  0  0  0  0  0  0  0  0  0
   -3.7184    2.5334    0.3824 C   0  0  0  0  0  0  0  0  0  0  0  0
   -4.8905    2.4785    1.1932 C   0  0  0  0  0  0  0  0  0  0  0  0
   -5.4762    3.6837    1.6268 C   0  0  0  0  0  0  0  0  0  0  0  0
   -4.9993    4.9361    1.2157 C   0  0  0  0  0  0  0  0  0  0  0  0
   -5.6875    6.1820    1.7052 C   0  0  0  0  0  0  0  0  0  0  0  0
   -5.5095    1.2484    1.5782 N   0  0  0  0  0  0  0  0  0  0  0  0
   -6.9388    1.1907    1.1792 C   0  0  1  0  0  0  0  0  0  0  0  0
   -7.0871    0.0302    0.1817 C   0  0  0  0  0  0  0  0  0  0  0  0
   -5.6533   -0.2163   -0.2791 C   0  0  1  0  0  0  0  0  0  0  0  0
   -4.8591   -0.0026    1.0436 C   0  0  2  0  0  0  0  0  0  0  0  0
   -5.0421   -1.1385    2.0648 C   0  0  0  0  0  0  0  0  0  0  0  0
   -5.9948   -1.2410    2.8386 O   0  0  0  0  0  0  0  0  0  0  0  0
   -4.0364   -2.0580    2.0822 N   0  0  0  0  0  0  0  0  0  0  0  0
   -2.7969   -1.5305    2.1938 C   0  0  0  0  0  0  0  0  0  0  0  0
   -2.0851   -1.8596    3.1294 O   0  0  0  0  0  0  0  0  0  0  0  0
   -2.4441   -0.5610    1.2909 N   0  0  0  0  0  0  0  0  0  0  0  0
   -3.3630    0.2156    0.8053 C   0  0  0  0  0  0  0  0  0  0  0  0
   -3.0184    1.3454    0.0794 N   0  0  0  0  0  0  0  0  0  0  0  0
   -2.0794    1.2570   -1.0362 C   0  0  0  0  0  0  0  0  0  0  0  0
   -0.6054    1.5788   -0.7296 C   0  0  1  0  0  0  0  0  0  0  0  0
    0.2047    0.4933    0.0221 C   0  0  1  0  0  0  0  0  0  0  0  0
    0.2140   -0.9328   -0.5906 C   0  0  1  0  0  0  0  0  0  0  0  0
    0.9367   -1.1287   -1.9283 C   0  0  0  0  0  0  0  0  0  0  0  0
    2.3483   -1.0294   -1.7590 O   0  0  0  0  0  0  0  0  0  0  0  0
    3.1275    0.1111   -2.5476 P   0  0  0  0  0  5  0  0  0  0  0  0
    2.5109    1.4690   -2.5241 O   0  0  0  0  0  0  0  0  0  0  0  0
    3.2408   -0.4956   -4.0248 O   0  0  0  0  0  0  0  0  0  0  0  0
    4.6142    0.0307   -2.0104 O   0  0  0  0  0  0  0  0  0  0  0  0
    4.9952    0.4094   -0.5187 P   0  0  0  0  0  5  0  0  0  0  0  0
    4.6968   -0.5923    0.5433 O   0  0  0  0  0  0  0  0  0  0  0  0
    4.3100    1.8335   -0.2777 O   0  0  0  0  0  0  0  0  0  0  0  0
    6.5376    0.8067   -0.6599 O   0  0  0  0  0  0  0  0  0  0  0  0
    7.5322   -0.1781   -0.4446 C   0  0  0  0  0  0  0  0  0  0  0  0
    8.1050   -0.0453    0.9693 C   0  0  2  0  0  0  0  0  0  0  0  0
    8.6514    1.3581    1.2510 C   0  0  2  0  0  0  0  0  0  0  0  0
   10.1035    1.2315    0.8247 C   0  0  2  0  0  0  0  0  0  0  0  0
   10.4115   -0.1849    1.3010 C   0  0  1  0  0  0  0  0  0  0  0  0
    9.2080   -0.9631    1.1355 O   0  0  0  0  0  0  0  0  0  0  0  0
   11.5180   -0.8008    0.5957 N   0  0  0  0  0  0  0  0  0  0  0  0
   12.7667   -0.9895    1.1288 C   0  0  0  0  0  0  0  0  0  0  0  0
   13.6147   -1.4661    0.2443 N   0  0  0  0  0  0  0  0  0  0  0  0
   12.8847   -1.5749   -0.9184 C   0  0  0  0  0  0  0  0  0  0  0  0
   13.2332   -1.9712   -2.2192 C   0  0  0  0  0  0  0  0  0  0  0  0
   12.2715   -1.9961   -3.1670 N   0  0  0  0  0  0  0  0  0  0  0  0
   11.0256   -1.6033   -2.8237 C   0  0  0  0  0  0  0  0  0  0  0  0
   10.5821   -1.1641   -1.6259 N   0  0  0  0  0  0  0  0  0  0  0  0
   11.5691   -1.1849   -0.7159 C   0  0  0  0  0  0  0  0  0  0  0  0
   14.5214   -2.3248   -2.5667 N   0  0  0  0  0  0  0  0  0  0  0  0
   10.9170    2.2243    1.4489 O   0  0  0  0  0  0  0  0  0  0  0  0
    8.6417    1.6476    2.6619 O   0  0  0  0  0  0  0  0  0  0  0  0
    0.8240   -1.8278    0.3547 O   0  0  0  0  0  0  0  0  0  0  0  0
    1.5725    0.9787    0.2113 O   0  0  0  0  0  0  0  0  0  0  0  0
   -0.0049    1.8685   -2.0020 O   0  0  0  0  0  0  0  0  0  0  0  0
   -5.4094   -1.3947   -1.2026 C   0  0  0  0  0  0  0  0  0  0  0  0
   -5.6798   -2.7423   -0.9012 C   0  0  0  0  0  0  0  0  0  0  0  0
   -5.3787   -3.7318   -1.8490 C   0  0  0  0  0  0  0  0  0  0  0  0
   -4.8899   -3.4092   -3.1122 C   0  0  0  0  0  0  0  0  0  0  0  0
   -4.6557   -2.0825   -3.4393 C   0  0  0  0  0  0  0  0  0  0  0  0
   -4.9046   -1.0904   -2.4940 C   0  0  0  0  0  0  0  0  0  0  0  0
   -5.5050   -5.0371   -1.5727 F   0  0  0  0  0  0  0  0  0  0  0  0
   -6.1562   -2.9985    0.3548 O   0  0  0  0  0  0  0  0  0  0  0  0
   -7.0505   -4.0927    0.5709 C   0  0  0  0  0  0  0  0  0  0  0  0
   -8.4797   -3.6179    0.5654 C   0  0  0  0  0  0  0  0  0  0  0  0
   -9.2589   -3.7257   -0.5951 C   0  0  0  0  0  0  0  0  0  0  0  0
  -10.5824   -3.2804   -0.6004 C   0  0  0  0  0  0  0  0  0  0  0  0
  -11.1310   -2.7116    0.5484 C   0  0  0  0  0  0  0  0  0  0  0  0
  -10.3617   -2.5846    1.7003 C   0  0  0  0  0  0  0  0  0  0  0  0
   -9.0404   -3.0372    1.7100 C   0  0  0  0  0  0  0  0  0  0  0  0
   -7.7061    0.9481    2.3361 O   0  0  0  0  0  0  0  0  0  0  0  0
   -2.6018    6.1698   -0.9213 H   0  0  0  0  0  0  0  0  0  0  0  0
   -2.8354    6.8203    0.7119 H   0  0  0  0  0  0  0  0  0  0  0  0
   -4.1255    6.9512   -0.5182 H   0  0  0  0  0  0  0  0  0  0  0  0
   -2.3796    3.8770   -0.6657 H   0  0  0  0  0  0  0  0  0  0  0  0
   -6.3320    3.6368    2.3009 H   0  0  0  0  0  0  0  0  0  0  0  0
   -4.9643    6.8664    2.1606 H   0  0  0  0  0  0  0  0  0  0  0  0
   -6.4365    5.9544    2.4686 H   0  0  0  0  0  0  0  0  0  0  0  0
   -6.1929    6.6805    0.8732 H   0  0  0  0  0  0  0  0  0  0  0  0
   -7.3175    2.1050    0.7123 H   0  0  0  0  0  0  0  0  0  0  0  0
   -7.7390    0.3141   -0.6539 H   0  0  0  0  0  0  0  0  0  0  0  0
   -7.5401   -0.8426    0.6544 H   0  0  0  0  0  0  0  0  0  0  0  0
   -5.4387    0.6627   -0.9064 H   0  0  0  0  0  0  0  0  0  0  0  0
   -4.1917   -2.7364    2.8072 H   0  0  0  0  0  0  0  0  0  0  0  0
   -2.1526    0.2611   -1.5000 H   0  0  0  0  0  0  0  0  0  0  0  0
   -2.4259    1.9188   -1.8465 H   0  0  0  0  0  0  0  0  0  0  0  0
   -0.5377    2.5082   -0.1525 H   0  0  0  0  0  0  0  0  0  0  0  0
   -0.1899    0.4063    1.0405 H   0  0  0  0  0  0  0  0  0  0  0  0
   -0.8165   -1.2779   -0.7104 H   0  0  0  0  0  0  0  0  0  0  0  0
    0.7437   -2.1452   -2.2881 H   0  0  0  0  0  0  0  0  0  0  0  0
    0.5716   -0.4437   -2.6987 H   0  0  0  0  0  0  0  0  0  0  0  0
    3.5308    0.1693   -4.6746 H   0  0  0  0  0  0  0  0  0  0  0  0
    3.3478    1.7353   -0.1081 H   0  0  0  0  0  0  0  0  0  0  0  0
    7.1402   -1.1879   -0.6116 H   0  0  0  0  0  0  0  0  0  0  0  0
    8.3086   -0.0288   -1.1962 H   0  0  0  0  0  0  0  0  0  0  0  0
    7.3395   -0.3054    1.7055 H   0  0  0  0  0  0  0  0  0  0  0  0
    8.1317    2.1774    0.7442 H   0  0  0  0  0  0  0  0  0  0  0  0
   10.1939    1.3320   -0.2636 H   0  0  0  0  0  0  0  0  0  0  0  0
   10.6615   -0.1921    2.3704 H   0  0  0  0  0  0  0  0  0  0  0  0
   13.0133   -0.7461    2.1523 H   0  0  0  0  0  0  0  0  0  0  0  0
   10.2901   -1.6495   -3.6187 H   0  0  0  0  0  0  0  0  0  0  0  0
   15.1278   -2.5565   -1.7883 H   0  0  0  0  0  0  0  0  0  0  0  0
   14.6054   -2.8059   -3.4464 H   0  0  0  0  0  0  0  0  0  0  0  0
   10.4755    2.4245    2.3002 H   0  0  0  0  0  0  0  0  0  0  0  0
    7.7055    1.6702    2.9425 H   0  0  0  0  0  0  0  0  0  0  0  0
    1.7789   -1.6157    0.3511 H   0  0  0  0  0  0  0  0  0  0  0  0
    1.5451    1.4143    1.0904 H   0  0  0  0  0  0  0  0  0  0  0  0
    0.9702    1.9706   -1.8779 H   0  0  0  0  0  0  0  0  0  0  0  0
   -4.6824   -4.2039   -3.8237 H   0  0  0  0  0  0  0  0  0  0  0  0
   -4.2824   -1.8199   -4.4298 H   0  0  0  0  0  0  0  0  0  0  0  0
   -4.7122   -0.0581   -2.7881 H   0  0  0  0  0  0  0  0  0  0  0  0
   -6.9340   -4.9366   -0.1068 H   0  0  0  0  0  0  0  0  0  0  0  0
   -6.8151   -4.4897    1.5642 H   0  0  0  0  0  0  0  0  0  0  0  0
   -8.8417   -4.1624   -1.5015 H   0  0  0  0  0  0  0  0  0  0  0  0
  -11.1855   -3.3760   -1.4988 H   0  0  0  0  0  0  0  0  0  0  0  0
  -12.1582   -2.3579    0.5405 H   0  0  0  0  0  0  0  0  0  0  0  0
  -10.7851   -2.1274    2.5911 H   0  0  0  0  0  0  0  0  0  0  0  0
   -8.4429   -2.9105    2.6115 H   0  0  0  0  0  0  0  0  0  0  0  0
   -7.1368    0.3634    2.8786 H   0  0  0  0  0  0  0  0  0  0  0  0
  1  2  1  0
  2  3  2  0
  3  4  1  0
  4  5  2  0
  5  6  1  0
  6  7  2  0
  7  8  1  0
  5  9  1  0
  9 10  1  0
 10 11  1  0
 11 12  1  0
 12 13  1  0
 13 14  1  1
 14 15  2  0
 14 16  1  0
 16 17  1  0
 17 18  2  0
 17 19  1  0
 19 20  2  0
 20 21  1  0
 21 22  1  0
 22 23  1  0
 23 24  1  0
 24 25  1  0
 25 26  1  0
 26 27  1  0
 27 28  1  0
 28 29  2  0
 28 30  1  0
 28 31  1  0
 31 32  1  0
 32 33  2  0
 32 34  1  0
 32 35  1  0
 35 36  1  0
 36 37  1  0
 37 38  1  0
 38 39  1  0
 39 40  1  0
 40 41  1  0
 40 42  1  0
 42 43  1  0
 43 44  2  0
 44 45  1  0
 45 46  2  0
 46 47  1  0
 47 48  2  0
 48 49  1  0
 49 50  2  0
 46 51  1  0
 39 52  1  0
 38 53  1  0
 25 54  1  0
 24 55  1  0
 23 56  1  0
 12 57  1  0
 57 58  1  0
 58 59  2  0
 59 60  1  0
 60 61  2  0
 61 62  1  0
 59 63  1  0
 58 64  1  0
 64 65  1  0
 65 66  1  0
 66 67  2  0
 67 68  1  0
 68 69  2  0
 69 70  1  0
 70 71  2  0
 10 72  1  0
  7  2  1  0
 21  4  1  0
 13  9  1  0
 20 13  1  0
 41 37  1  0
 50 42  1  0
 50 45  1  0
 62 57  2  0
 71 66  1  0
  1 73  1  0
  1 74  1  0
  1 75  1  0
  3 76  1  0
  6 77  1  0
  8 78  1  0
  8 79  1  0
  8 80  1  0
 10 81  1  6
 11 82  1  0
 11 83  1  0
 12 84  1  6
 16 85  1  0
 22 86  1  0
 22 87  1  0
 23 88  1  1
 24 89  1  1
 25 90  1  6
 26 91  1  0
 26 92  1  0
 30 93  1  0
 34 94  1  0
 36 95  1  0
 36 96  1  0
 37 97  1  1
 38 98  1  6
 39 99  1  6
 40100  1  1
 43101  1  0
 48102  1  0
 51103  1  0
 51104  1  0
 52105  1  0
 53106  1  0
 54107  1  0
 55108  1  0
 56109  1  0
 60110  1  0
 61111  1  0
 62112  1  0
 65113  1  0
 65114  1  0
 67115  1  0
 68116  1  0
 69117  1  0
 70118  1  0
 71119  1  0
 72120  1  0
M  END
$$$$
