
     RDKit          3D

 69 73  0  0  0  0  0  0  0  0999 V2000
   11.3502    0.6636    1.5133 C   0  0  0  0  0  0  0  0  0  0  0  0
    9.9747    0.0133    1.3979 C   0  0  0  0  0  0  0  0  0  0  0  0
    8.8912    0.9958    1.2610 N   0  0  0  0  0  0  0  0  0  0  0  0
    8.8662    1.6847   -0.0482 C   0  0  0  0  0  0  0  0  0  0  0  0
    7.8882    1.0545   -1.0658 C   0  0  0  0  0  0  0  0  0  0  0  0
    6.4736    1.0424   -0.6196 N   0  0  0  0  0  0  0  0  0  0  0  0
    6.3936    1.0603    0.8592 C   0  0  0  0  0  0  0  0  0  0  0  0
    7.5833    0.3648    1.5559 C   0  0  0  0  0  0  0  0  0  0  0  0
    5.7860   -0.1125   -1.2198 C   0  0  0  0  0  0  0  0  0  0  0  0
    4.2932   -0.1293   -1.0185 C   0  0  0  0  0  0  0  0  0  0  0  0
    3.6673   -1.2310   -0.4551 C   0  0  0  0  0  0  0  0  0  0  0  0
    2.3317   -1.3439   -0.2763 N   0  0  0  0  0  0  0  0  0  0  0  0
    1.5400   -0.3210   -0.6749 C   0  0  0  0  0  0  0  0  0  0  0  0
    2.0833    0.8242   -1.2444 C   0  0  0  0  0  0  0  0  0  0  0  0
    3.4681    0.9200   -1.4197 C   0  0  0  0  0  0  0  0  0  0  0  0
    0.1917   -0.5365   -0.4724 N   0  0  0  0  0  0  0  0  0  0  0  0
   -0.9702    0.1475   -0.7616 C   0  0  0  0  0  0  0  0  0  0  0  0
   -0.9605    1.3740   -1.3050 N   0  0  0  0  0  0  0  0  0  0  0  0
   -2.1565    1.9424   -1.5578 C   0  0  0  0  0  0  0  0  0  0  0  0
   -3.3594    1.3331   -1.2984 C   0  0  0  0  0  0  0  0  0  0  0  0
   -3.3007    0.0697   -0.7455 C   0  0  0  0  0  0  0  0  0  0  0  0
   -2.1055   -0.5151   -0.4726 N   0  0  0  0  0  0  0  0  0  0  0  0
   -4.4880   -0.7658   -0.4461 C   0  0  0  0  0  0  0  0  0  0  0  0
   -5.7381   -0.2059   -0.0961 C   0  0  0  0  0  0  0  0  0  0  0  0
   -6.8335   -1.0606    0.1405 C   0  0  0  0  0  0  0  0  0  0  0  0
   -6.7221   -2.4435    0.0463 C   0  0  0  0  0  0  0  0  0  0  0  0
   -5.4784   -3.0026   -0.2741 C   0  0  0  0  0  0  0  0  0  0  0  0
   -4.3848   -2.1681   -0.5116 C   0  0  0  0  0  0  0  0  0  0  0  0
   -5.3196   -4.3301   -0.3755 F   0  0  0  0  0  0  0  0  0  0  0  0
   -7.9283   -3.0431    0.2892 N   0  0  0  0  0  0  0  0  0  0  0  0
   -8.7869   -2.0712    0.5203 C   0  0  0  0  0  0  0  0  0  0  0  0
   -8.1609   -0.8405    0.4760 N   0  0  0  0  0  0  0  0  0  0  0  0
   -8.7469    0.4829    0.6858 C   0  0  0  0  0  0  0  0  0  0  0  0
   -9.5033    0.9674   -0.5491 C   0  0  0  0  0  0  0  0  0  0  0  0
   -9.5904    0.6054    1.9541 C   0  0  0  0  0  0  0  0  0  0  0  0
  -10.2262   -2.3057    0.7963 C   0  0  0  0  0  0  0  0  0  0  0  0
   -4.5088    1.9511   -1.6000 F   0  0  0  0  0  0  0  0  0  0  0  0
   11.3612    1.4152    2.3094 H   0  0  0  0  0  0  0  0  0  0  0  0
   12.1033   -0.0943    1.7582 H   0  0  0  0  0  0  0  0  0  0  0  0
   11.6616    1.1436    0.5804 H   0  0  0  0  0  0  0  0  0  0  0  0
    9.9652   -0.7054    0.5705 H   0  0  0  0  0  0  0  0  0  0  0  0
    9.8227   -0.5603    2.3220 H   0  0  0  0  0  0  0  0  0  0  0  0
    8.5638    2.7264    0.1315 H   0  0  0  0  0  0  0  0  0  0  0  0
    9.8627    1.7480   -0.4989 H   0  0  0  0  0  0  0  0  0  0  0  0
    8.2416    0.0355   -1.2623 H   0  0  0  0  0  0  0  0  0  0  0  0
    7.9467    1.5995   -2.0128 H   0  0  0  0  0  0  0  0  0  0  0  0
    6.3667    2.1118    1.1768 H   0  0  0  0  0  0  0  0  0  0  0  0
    5.4543    0.6309    1.2284 H   0  0  0  0  0  0  0  0  0  0  0  0
    7.4259    0.3882    2.6410 H   0  0  0  0  0  0  0  0  0  0  0  0
    7.5785   -0.6912    1.2533 H   0  0  0  0  0  0  0  0  0  0  0  0
    6.2241   -1.0497   -0.8510 H   0  0  0  0  0  0  0  0  0  0  0  0
    5.9503   -0.1036   -2.3059 H   0  0  0  0  0  0  0  0  0  0  0  0
    4.2364   -2.0928   -0.1158 H   0  0  0  0  0  0  0  0  0  0  0  0
    1.4534    1.6476   -1.5664 H   0  0  0  0  0  0  0  0  0  0  0  0
    3.8960    1.8125   -1.8696 H   0  0  0  0  0  0  0  0  0  0  0  0
    0.0109   -1.4437   -0.0670 H   0  0  0  0  0  0  0  0  0  0  0  0
   -2.1190    2.9333   -2.0017 H   0  0  0  0  0  0  0  0  0  0  0  0
   -5.8584    0.8693   -0.0117 H   0  0  0  0  0  0  0  0  0  0  0  0
   -3.4393   -2.6421   -0.7686 H   0  0  0  0  0  0  0  0  0  0  0  0
   -7.9017    1.1638    0.8349 H   0  0  0  0  0  0  0  0  0  0  0  0
   -9.8133    2.0122   -0.4283 H   0  0  0  0  0  0  0  0  0  0  0  0
  -10.4020    0.3716   -0.7372 H   0  0  0  0  0  0  0  0  0  0  0  0
   -8.8728    0.9042   -1.4446 H   0  0  0  0  0  0  0  0  0  0  0  0
   -9.7753    1.6611    2.1852 H   0  0  0  0  0  0  0  0  0  0  0  0
  -10.5700    0.1328    1.8503 H   0  0  0  0  0  0  0  0  0  0  0  0
   -9.0801    0.1566    2.8125 H   0  0  0  0  0  0  0  0  0  0  0  0
  -10.4299   -2.2250    1.8671 H   0  0  0  0  0  0  0  0  0  0  0  0
  -10.5072   -3.3175    0.4840 H   0  0  0  0  0  0  0  0  0  0  0  0
  -10.8697   -1.6092    0.2527 H   0  0  0  0  0  0  0  0  0  0  0  0
  1  2  1  0
  2  3  1  0
  3  4  1  0
  4  5  1  0
  5  6  1  0
  6  7  1  0
  7  8  1  0
  6  9  1  0
  9 10  1  0
 10 11  2  0
 11 12  1  0
 12 13  2  0
 13 14  1  0
 14 15  2  0
 13 16  1  0
 16 17  1  0
 17 18  2  0
 18 19  1  0
 19 20  2  0
 20 21  1  0
 21 22  2  0
 21 23  1  0
 23 24  2  0
 24 25  1  0
 25 26  2  0
 26 27  1  0
 27 28  2  0
 27 29  1  0
 26 30  1  0
 30 31  2  0
 31 32  1  0
 32 33  1  0
 33 34  1  0
 33 35  1  0
 31 36  1  0
 20 37  1  0
  8  3  1  0
 15 10  1  0
 22 17  1  0
 28 23  1  0
 32 25  1  0
  1 38  1  0
  1 39  1  0
  1 40  1  0
  2 41  1  0
  2 42  1  0
  4 43  1  0
  4 44  1  0
  5 45  1  0
  5 46  1  0
  7 47  1  0
  7 48  1  0
  8 49  1  0
  8 50  1  0
  9 51  1  0
  9 52  1  0
 11 53  1  0
 14 54  1  0
 15 55  1  0
 16 56  1  0
 19 57  1  0
 24 58  1  0
 28 59  1  0
 33 60  1  0
 34 61  1  0
 34 62  1  0
 34 63  1  0
 35 64  1  0
 35 65  1  0
 35 66  1  0
 36 67  1  0
 36 68  1  0
 36 69  1  0
M  END
$$$$
