
     RDKit          3D

 33 32  0  0  0  0  0  0  0  0999 V2000
   -1.9999    1.6011    0.6443 C   0  0  0  0  0  0  0  0  0  0  0  0
   -1.9304    0.1192    0.2099 C   0  0  0  0  0  0  0  0  0  0  0  0
   -1.0979   -0.6645    1.2450 C   0  0  0  0  0  0  0  0  0  0  0  0
   -3.3751   -0.4437    0.2041 C   0  0  0  0  0  0  0  0  0  0  0  0
   -3.3730   -1.8351   -0.1034 O   0  0  0  0  0  0  0  0  0  0  0  0
   -1.3253   -0.0119   -1.2196 C   0  0  0  0  0  0  0  0  0  0  0  0
   -2.2035    0.6184   -2.1728 O   0  0  0  0  0  0  0  0  0  0  0  0
    0.0665    0.6343   -1.3918 C   0  0  0  0  0  0  0  0  0  0  0  0
    0.1877    1.7156   -1.9678 O   0  0  0  0  0  0  0  0  0  0  0  0
    1.1288   -0.0760   -0.8954 N   0  0  0  0  0  0  0  0  0  0  0  0
    2.4782    0.4285   -1.0106 C   0  0  0  0  0  0  0  0  0  0  0  0
    3.5016   -0.3930   -0.2262 C   0  0  0  0  0  0  0  0  0  0  0  0
    3.3415   -0.2856    1.2840 C   0  0  0  0  0  0  0  0  0  0  0  0
    3.4652    1.0565    1.7298 O   0  0  0  0  0  0  0  0  0  0  0  0
   -2.5972    2.2019   -0.0551 H   0  0  0  0  0  0  0  0  0  0  0  0
   -0.9976    2.0486    0.7051 H   0  0  0  0  0  0  0  0  0  0  0  0
   -2.4524    1.7004    1.6396 H   0  0  0  0  0  0  0  0  0  0  0  0
   -0.9415   -1.7030    0.9377 H   0  0  0  0  0  0  0  0  0  0  0  0
   -0.1144   -0.2132    1.4048 H   0  0  0  0  0  0  0  0  0  0  0  0
   -1.5917   -0.6850    2.2221 H   0  0  0  0  0  0  0  0  0  0  0  0
   -3.8458   -0.3239    1.1859 H   0  0  0  0  0  0  0  0  0  0  0  0
   -4.0094    0.0750   -0.5254 H   0  0  0  0  0  0  0  0  0  0  0  0
   -4.2791   -2.0543   -0.3885 H   0  0  0  0  0  0  0  0  0  0  0  0
   -1.2480   -1.0629   -1.5148 H   0  0  0  0  0  0  0  0  0  0  0  0
   -1.7592    1.4461   -2.4422 H   0  0  0  0  0  0  0  0  0  0  0  0
    0.9758   -1.0381   -0.5949 H   0  0  0  0  0  0  0  0  0  0  0  0
    2.7337    0.4043   -2.0777 H   0  0  0  0  0  0  0  0  0  0  0  0
    2.4896    1.4778   -0.7007 H   0  0  0  0  0  0  0  0  0  0  0  0
    4.5002   -0.0367   -0.5015 H   0  0  0  0  0  0  0  0  0  0  0  0
    3.4430   -1.4429   -0.5245 H   0  0  0  0  0  0  0  0  0  0  0  0
    4.1016   -0.8835    1.7952 H   0  0  0  0  0  0  0  0  0  0  0  0
    2.3660   -0.6618    1.6027 H   0  0  0  0  0  0  0  0  0  0  0  0
    4.3620    1.3687    1.5026 H   0  0  0  0  0  0  0  0  0  0  0  0
  1  2  1  0
  2  3  1  0
  2  4  1  0
  4  5  1  0
  2  6  1  0
  6  7  1  0
  6  8  1  0
  8  9  2  0
  8 10  1  0
 10 11  1  0
 11 12  1  0
 12 13  1  0
 13 14  1  0
  1 15  1  0
  1 16  1  0
  1 17  1  0
  3 18  1  0
  3 19  1  0
  3 20  1  0
  4 21  1  0
  4 22  1  0
  5 23  1  0
  6 24  1  0
  7 25  1  0
 10 26  1  0
 11 27  1  0
 11 28  1  0
 12 29  1  0
 12 30  1  0
 13 31  1  0
 13 32  1  0
 14 33  1  0
M  END
$$$$
