
     RDKit          3D

 46 48  0  0  0  0  0  0  0  0999 V2000
   -6.4598    2.5423    0.2766 C   0  0  0  0  0  0  0  0  0  0  0  0
   -5.9880    1.2022    0.3006 O   0  0  0  0  0  0  0  0  0  0  0  0
   -4.6415    1.0075    0.4941 C   0  0  0  0  0  0  0  0  0  0  0  0
   -4.1776   -0.3150    0.3481 C   0  0  0  0  0  0  0  0  0  0  0  0
   -2.8151   -0.5944    0.5269 C   0  0  0  0  0  0  0  0  0  0  0  0
   -1.9072    0.4250    0.8600 C   0  0  0  0  0  0  0  0  0  0  0  0
   -2.3826    1.7327    1.0071 C   0  0  0  0  0  0  0  0  0  0  0  0
   -3.7378    2.0217    0.8280 C   0  0  0  0  0  0  0  0  0  0  0  0
   -0.4320    0.1181    1.0284 C   0  0  0  0  0  0  0  0  0  0  0  0
    0.4277    0.2166   -0.2226 C   0  0  0  0  0  0  0  0  0  0  0  0
   -0.2065    0.5556   -1.3768 N   0  0  0  0  0  0  0  0  0  0  0  0
    0.5229    0.6510   -2.5016 C   0  0  0  0  0  0  0  0  0  0  0  0
    1.8832    0.4231   -2.5468 C   0  0  0  0  0  0  0  0  0  0  0  0
    2.5492    0.0710   -1.3702 C   0  0  0  0  0  0  0  0  0  0  0  0
    3.9331   -0.1744   -1.3894 C   0  0  0  0  0  0  0  0  0  0  0  0
    4.6194   -0.5385   -0.2280 C   0  0  0  0  0  0  0  0  0  0  0  0
    3.9160   -0.6534    0.9822 C   0  0  0  0  0  0  0  0  0  0  0  0
    2.5366   -0.4048    1.0048 C   0  0  0  0  0  0  0  0  0  0  0  0
    1.8228   -0.0413   -0.1652 C   0  0  0  0  0  0  0  0  0  0  0  0
    4.6592   -1.0155    2.0782 O   0  0  0  0  0  0  0  0  0  0  0  0
    4.0027   -1.1110    3.3323 C   0  0  0  0  0  0  0  0  0  0  0  0
    5.9633   -0.8102   -0.1722 O   0  0  0  0  0  0  0  0  0  0  0  0
    6.7209   -0.6632   -1.3634 C   0  0  0  0  0  0  0  0  0  0  0  0
   -5.1274   -1.2543    0.0219 O   0  0  0  0  0  0  0  0  0  0  0  0
   -4.6966   -2.5976   -0.1354 C   0  0  0  0  0  0  0  0  0  0  0  0
   -7.5240    2.5173    0.0200 H   0  0  0  0  0  0  0  0  0  0  0  0
   -5.9471    3.1326   -0.4913 H   0  0  0  0  0  0  0  0  0  0  0  0
   -6.3664    3.0069    1.2632 H   0  0  0  0  0  0  0  0  0  0  0  0
   -2.4282   -1.5990    0.3916 H   0  0  0  0  0  0  0  0  0  0  0  0
   -1.6956    2.5413    1.2418 H   0  0  0  0  0  0  0  0  0  0  0  0
   -4.0553    3.0514    0.9501 H   0  0  0  0  0  0  0  0  0  0  0  0
   -0.0268    0.8012    1.7861 H   0  0  0  0  0  0  0  0  0  0  0  0
   -0.3384   -0.8958    1.4395 H   0  0  0  0  0  0  0  0  0  0  0  0
   -0.0349    0.9234   -3.3936 H   0  0  0  0  0  0  0  0  0  0  0  0
    2.4056    0.5181   -3.4934 H   0  0  0  0  0  0  0  0  0  0  0  0
    4.4591   -0.0811   -2.3344 H   0  0  0  0  0  0  0  0  0  0  0  0
    1.9943   -0.4966    1.9395 H   0  0  0  0  0  0  0  0  0  0  0  0
    4.7508   -1.3913    4.0811 H   0  0  0  0  0  0  0  0  0  0  0  0
    3.5794   -0.1462    3.6293 H   0  0  0  0  0  0  0  0  0  0  0  0
    3.2380   -1.8936    3.3171 H   0  0  0  0  0  0  0  0  0  0  0  0
    6.3486   -1.3201   -2.1591 H   0  0  0  0  0  0  0  0  0  0  0  0
    7.7515   -0.9642   -1.1446 H   0  0  0  0  0  0  0  0  0  0  0  0
    6.7395    0.3846   -1.6884 H   0  0  0  0  0  0  0  0  0  0  0  0
   -3.9829   -2.6893   -0.9615 H   0  0  0  0  0  0  0  0  0  0  0  0
   -4.2779   -2.9900    0.7984 H   0  0  0  0  0  0  0  0  0  0  0  0
   -5.5742   -3.2026   -0.3858 H   0  0  0  0  0  0  0  0  0  0  0  0
  1  2  1  0
  2  3  1  0
  3  4  2  0
  4  5  1  0
  5  6  2  0
  6  7  1  0
  7  8  2  0
  6  9  1  0
  9 10  1  0
 10 11  2  0
 11 12  1  0
 12 13  2  0
 13 14  1  0
 14 15  2  0
 15 16  1  0
 16 17  2  0
 17 18  1  0
 18 19  2  0
 17 20  1  0
 20 21  1  0
 16 22  1  0
 22 23  1  0
  4 24  1  0
 24 25  1  0
  8  3  1  0
 19 10  1  0
 19 14  1  0
  1 26  1  0
  1 27  1  0
  1 28  1  0
  5 29  1  0
  7 30  1  0
  8 31  1  0
  9 32  1  0
  9 33  1  0
 12 34  1  0
 13 35  1  0
 15 36  1  0
 18 37  1  0
 21 38  1  0
 21 39  1  0
 21 40  1  0
 23 41  1  0
 23 42  1  0
 23 43  1  0
 25 44  1  0
 25 45  1  0
 25 46  1  0
M  END
$$$$
