
     RDKit          3D

 47 50  0  0  0  0  0  0  0  0999 V2000
   -5.9519    1.4737   -0.5599 C   0  0  0  0  0  0  0  0  0  0  0  0
   -4.9387    0.4339   -0.1894 C   0  0  0  0  0  0  0  0  0  0  0  0
   -3.5687    0.7353   -0.1793 C   0  0  0  0  0  0  0  0  0  0  0  0
   -2.6126   -0.2200    0.1869 C   0  0  0  0  0  0  0  0  0  0  0  0
   -3.0658   -1.4987    0.5685 C   0  0  0  0  0  0  0  0  0  0  0  0
   -4.4277   -1.8183    0.5817 C   0  0  0  0  0  0  0  0  0  0  0  0
   -5.3500   -0.8405    0.2029 C   0  0  0  0  0  0  0  0  0  0  0  0
   -6.6628   -1.1250    0.2171 F   0  0  0  0  0  0  0  0  0  0  0  0
   -4.9598   -3.0279    0.9411 O   0  0  0  0  0  0  0  0  0  0  0  0
   -4.0560   -4.0435    1.3542 C   0  0  0  0  0  0  0  0  0  0  0  0
   -1.2359    0.0324    0.2160 N   0  0  0  0  0  0  0  0  0  0  0  0
   -0.4496    1.1598   -0.0059 C   0  0  0  0  0  0  0  0  0  0  0  0
   -0.9799    2.3600   -0.2571 N   0  0  0  0  0  0  0  0  0  0  0  0
   -0.1266    3.3806   -0.4389 C   0  0  0  0  0  0  0  0  0  0  0  0
    1.2440    3.2581   -0.3758 C   0  0  0  0  0  0  0  0  0  0  0  0
    1.7134    1.9803   -0.1067 C   0  0  0  0  0  0  0  0  0  0  0  0
    0.8718    0.9435    0.0693 N   0  0  0  0  0  0  0  0  0  0  0  0
    3.1136    1.7718   -0.0214 N   0  0  0  0  0  0  0  0  0  0  0  0
    3.8162    0.5438   -0.0310 C   0  0  0  0  0  0  0  0  0  0  0  0
    3.3472   -0.5807   -0.7275 C   0  0  0  0  0  0  0  0  0  0  0  0
    4.1379   -1.7071   -0.7261 C   0  0  0  0  0  0  0  0  0  0  0  0
    5.3611   -1.7678   -0.0976 C   0  0  0  0  0  0  0  0  0  0  0  0
    5.8729   -0.6802    0.5693 C   0  0  0  0  0  0  0  0  0  0  0  0
    5.0934    0.4851    0.5886 C   0  0  0  0  0  0  0  0  0  0  0  0
    5.9741   -3.0011   -0.2398 O   0  0  0  0  0  0  0  0  0  0  0  0
    5.0411   -3.7070   -1.0116 C   0  0  0  0  0  0  0  0  0  0  0  0
    5.1929   -4.8640   -1.3751 O   0  0  0  0  0  0  0  0  0  0  0  0
    3.9445   -2.9298   -1.3008 N   0  0  0  0  0  0  0  0  0  0  0  0
    2.1353    4.4356   -0.6011 C   0  0  0  0  0  0  0  0  0  0  0  0
   -6.7543    1.0354   -1.1625 H   0  0  0  0  0  0  0  0  0  0  0  0
   -6.3835    1.9152    0.3437 H   0  0  0  0  0  0  0  0  0  0  0  0
   -5.4995    2.2729   -1.1563 H   0  0  0  0  0  0  0  0  0  0  0  0
   -3.2600    1.7351   -0.4714 H   0  0  0  0  0  0  0  0  0  0  0  0
   -2.3273   -2.2372    0.8619 H   0  0  0  0  0  0  0  0  0  0  0  0
   -3.5036   -3.7403    2.2498 H   0  0  0  0  0  0  0  0  0  0  0  0
   -4.6436   -4.9304    1.6104 H   0  0  0  0  0  0  0  0  0  0  0  0
   -3.3744   -4.3191    0.5428 H   0  0  0  0  0  0  0  0  0  0  0  0
   -0.6264   -0.7450    0.4234 H   0  0  0  0  0  0  0  0  0  0  0  0
   -0.6035    4.3349   -0.6463 H   0  0  0  0  0  0  0  0  0  0  0  0
    3.5124    2.4323    0.6373 H   0  0  0  0  0  0  0  0  0  0  0  0
    2.4038   -0.5669   -1.2594 H   0  0  0  0  0  0  0  0  0  0  0  0
    6.8421   -0.7202    1.0529 H   0  0  0  0  0  0  0  0  0  0  0  0
    5.4899    1.3599    1.1000 H   0  0  0  0  0  0  0  0  0  0  0  0
    3.1611   -3.2414   -1.8501 H   0  0  0  0  0  0  0  0  0  0  0  0
    2.8236    4.2426   -1.4305 H   0  0  0  0  0  0  0  0  0  0  0  0
    2.7104    4.6578    0.3035 H   0  0  0  0  0  0  0  0  0  0  0  0
    1.5596    5.3322   -0.8548 H   0  0  0  0  0  0  0  0  0  0  0  0
  1  2  1  0
  2  3  2  0
  3  4  1  0
  4  5  2  0
  5  6  1  0
  6  7  2  0
  7  8  1  0
  6  9  1  0
  9 10  1  0
  4 11  1  0
 11 12  1  0
 12 13  2  0
 13 14  1  0
 14 15  2  0
 15 16  1  0
 16 17  2  0
 16 18  1  0
 18 19  1  0
 19 20  2  0
 20 21  1  0
 21 22  2  0
 22 23  1  0
 23 24  2  0
 22 25  1  0
 25 26  1  0
 26 27  2  0
 26 28  1  0
 15 29  1  0
  7  2  1  0
 17 12  1  0
 24 19  1  0
 28 21  1  0
  1 30  1  0
  1 31  1  0
  1 32  1  0
  3 33  1  0
  5 34  1  0
 10 35  1  0
 10 36  1  0
 10 37  1  0
 11 38  1  0
 14 39  1  0
 18 40  1  0
 20 41  1  0
 23 42  1  0
 24 43  1  0
 28 44  1  0
 29 45  1  0
 29 46  1  0
 29 47  1  0
M  END
$$$$
