
     RDKit          3D

 46 49  0  0  0  0  0  0  0  0999 V2000
    7.3727    0.1620    0.4568 C   0  0  0  0  0  0  0  0  0  0  0  0
    5.8906    0.4848    0.3444 C   0  0  0  0  0  0  0  0  0  0  0  0
    5.1580   -0.4926   -0.5589 C   0  0  0  0  0  0  0  0  0  0  0  0
    5.7700   -1.2230   -1.3426 O   0  0  0  0  0  0  0  0  0  0  0  0
    3.6705   -0.5734   -0.4795 C   0  0  0  0  0  0  0  0  0  0  0  0
    3.0974   -1.7298   -0.8215 C   0  0  0  0  0  0  0  0  0  0  0  0
    1.7611   -1.9827   -0.7681 N   0  0  0  0  0  0  0  0  0  0  0  0
    0.9751   -1.0012   -0.4380 C   0  0  0  0  0  0  0  0  0  0  0  0
   -0.4662   -1.3094   -0.4060 C   0  0  0  0  0  0  0  0  0  0  0  0
   -1.3997   -0.4020   -0.1101 C   0  0  0  0  0  0  0  0  0  0  0  0
   -0.9557    0.9755    0.1858 C   0  0  0  0  0  0  0  0  0  0  0  0
   -1.9126    1.9676    0.4909 C   0  0  0  0  0  0  0  0  0  0  0  0
   -1.5391    3.2826    0.7458 C   0  0  0  0  0  0  0  0  0  0  0  0
   -0.1996    3.6259    0.6936 C   0  0  0  0  0  0  0  0  0  0  0  0
    0.7633    2.6518    0.4051 C   0  0  0  0  0  0  0  0  0  0  0  0
    0.4181    1.3063    0.1668 C   0  0  0  0  0  0  0  0  0  0  0  0
    1.4009    0.2777   -0.1178 N   0  0  0  0  0  0  0  0  0  0  0  0
    2.7769    0.5135   -0.0116 C   0  0  0  0  0  0  0  0  0  0  0  0
    3.3069    1.5208    0.4541 O   0  0  0  0  0  0  0  0  0  0  0  0
   -2.7740   -0.6777   -0.0870 N   0  0  0  0  0  0  0  0  0  0  0  0
   -3.4997   -0.6471   -1.3759 C   0  0  0  0  0  0  0  0  0  0  0  0
   -4.9889   -0.4151   -1.1329 C   0  0  0  0  0  0  0  0  0  0  0  0
   -5.5657   -1.4572   -0.1788 C   0  0  0  0  0  0  0  0  0  0  0  0
   -4.7504   -1.5179    1.1096 C   0  0  0  0  0  0  0  0  0  0  0  0
   -3.2690   -1.7387    0.8144 C   0  0  0  0  0  0  0  0  0  0  0  0
    7.8646    0.2160   -0.5195 H   0  0  0  0  0  0  0  0  0  0  0  0
    7.5243   -0.8473    0.8529 H   0  0  0  0  0  0  0  0  0  0  0  0
    7.8672    0.8726    1.1262 H   0  0  0  0  0  0  0  0  0  0  0  0
    5.7761    1.4934   -0.0655 H   0  0  0  0  0  0  0  0  0  0  0  0
    5.4524    0.4436    1.3473 H   0  0  0  0  0  0  0  0  0  0  0  0
    3.7041   -2.5689   -1.1605 H   0  0  0  0  0  0  0  0  0  0  0  0
   -0.7354   -2.3304   -0.6496 H   0  0  0  0  0  0  0  0  0  0  0  0
   -2.9701    1.7155    0.5302 H   0  0  0  0  0  0  0  0  0  0  0  0
   -2.2926    4.0315    0.9741 H   0  0  0  0  0  0  0  0  0  0  0  0
    0.1084    4.6528    0.8762 H   0  0  0  0  0  0  0  0  0  0  0  0
    1.7859    3.0098    0.3625 H   0  0  0  0  0  0  0  0  0  0  0  0
   -3.3415   -1.5906   -1.9138 H   0  0  0  0  0  0  0  0  0  0  0  0
   -3.1160    0.1616   -2.0102 H   0  0  0  0  0  0  0  0  0  0  0  0
   -5.1382    0.5854   -0.7075 H   0  0  0  0  0  0  0  0  0  0  0  0
   -5.5294   -0.4440   -2.0856 H   0  0  0  0  0  0  0  0  0  0  0  0
   -5.5602   -2.4418   -0.6626 H   0  0  0  0  0  0  0  0  0  0  0  0
   -6.6094   -1.2161    0.0507 H   0  0  0  0  0  0  0  0  0  0  0  0
   -4.8775   -0.5783    1.6624 H   0  0  0  0  0  0  0  0  0  0  0  0
   -5.1264   -2.3234    1.7504 H   0  0  0  0  0  0  0  0  0  0  0  0
   -3.1119   -2.7250    0.3605 H   0  0  0  0  0  0  0  0  0  0  0  0
   -2.7153   -1.7167    1.7612 H   0  0  0  0  0  0  0  0  0  0  0  0
  1  2  1  0
  2  3  1  0
  3  4  2  0
  3  5  1  0
  5  6  2  0
  6  7  1  0
  7  8  2  0
  8  9  1  0
  9 10  2  0
 10 11  1  0
 11 12  2  0
 12 13  1  0
 13 14  2  0
 14 15  1  0
 15 16  2  0
 16 17  1  0
 17 18  1  0
 18 19  2  0
 10 20  1  0
 20 21  1  0
 21 22  1  0
 22 23  1  0
 23 24  1  0
 24 25  1  0
 18  5  1  0
 17  8  1  0
 16 11  1  0
 25 20  1  0
  1 26  1  0
  1 27  1  0
  1 28  1  0
  2 29  1  0
  2 30  1  0
  6 31  1  0
  9 32  1  0
 12 33  1  0
 13 34  1  0
 14 35  1  0
 15 36  1  0
 21 37  1  0
 21 38  1  0
 22 39  1  0
 22 40  1  0
 23 41  1  0
 23 42  1  0
 24 43  1  0
 24 44  1  0
 25 45  1  0
 25 46  1  0
M  END
$$$$
