
     RDKit          3D

 56 59  0  0  0  0  0  0  0  0999 V2000
   -2.0508   -1.9182   -1.0371 C   0  0  0  0  0  0  0  0  0  0  0  0
   -2.1708   -0.4311   -1.2349 C   0  0  0  0  0  0  0  0  0  0  0  0
   -2.8131    0.1459   -2.3234 C   0  0  0  0  0  0  0  0  0  0  0  0
   -2.6793    1.8451   -2.3145 S   0  0  0  0  0  0  0  0  0  0  0  0
   -1.7325    1.8282   -0.9136 C   0  0  0  0  0  0  0  0  0  0  0  0
   -1.6420    0.5791   -0.3312 C   0  0  0  0  0  0  0  0  0  0  0  0
   -1.0735    0.3451    1.0057 C   0  0  0  0  0  0  0  0  0  0  0  0
    0.0120    0.8950    1.4185 N   0  0  0  0  0  0  0  0  0  0  0  0
    0.8525    1.7672    0.6049 C   0  0  2  0  0  0  0  0  0  0  0  0
    0.1183    3.0052    0.2000 C   0  0  0  0  0  0  0  0  0  0  0  0
    0.5423    4.2376    0.3616 N   0  0  0  0  0  0  0  0  0  0  0  0
   -0.3620    5.0724   -0.2279 N   0  0  0  0  0  0  0  0  0  0  0  0
   -1.3316    4.3429   -0.7389 C   0  0  0  0  0  0  0  0  0  0  0  0
   -1.0720    2.9945   -0.5091 N   0  0  0  0  0  0  0  0  0  0  0  0
   -2.5407    4.9148   -1.3800 C   0  0  0  0  0  0  0  0  0  0  0  0
    1.5284    1.0674   -0.5783 C   0  0  0  0  0  0  0  0  0  0  0  0
    2.2046   -0.2229   -0.1893 C   0  0  0  0  0  0  0  0  0  0  0  0
    1.6252   -1.2020    0.2546 O   0  0  0  0  0  0  0  0  0  0  0  0
    3.5308   -0.1635   -0.4786 O   0  0  0  0  0  0  0  0  0  0  0  0
    4.3976   -1.2935   -0.2162 C   0  0  0  0  0  0  0  0  0  0  0  0
    3.9377   -2.5566   -0.9601 C   0  0  0  0  0  0  0  0  0  0  0  0
    5.7661   -0.8707   -0.7704 C   0  0  0  0  0  0  0  0  0  0  0  0
    4.5197   -1.5357    1.2940 C   0  0  0  0  0  0  0  0  0  0  0  0
   -1.8005   -0.5590    1.9512 C   0  0  0  0  0  0  0  0  0  0  0  0
   -3.1953   -0.7064    1.9155 C   0  0  0  0  0  0  0  0  0  0  0  0
   -3.8346   -1.5691    2.8141 C   0  0  0  0  0  0  0  0  0  0  0  0
   -3.0879   -2.2671    3.7609 C   0  0  0  0  0  0  0  0  0  0  0  0
   -1.7036   -2.1108    3.8201 C   0  0  0  0  0  0  0  0  0  0  0  0
   -1.0638   -1.2546    2.9217 C   0  0  0  0  0  0  0  0  0  0  0  0
   -3.8768   -3.3272    4.8566 Cl  0  0  0  0  0  0  0  0  0  0  0  0
   -3.5496   -0.5408   -3.4317 C   0  0  0  0  0  0  0  0  0  0  0  0
   -3.0050   -2.3330   -0.6928 H   0  0  0  0  0  0  0  0  0  0  0  0
   -1.7730   -2.4095   -1.9782 H   0  0  0  0  0  0  0  0  0  0  0  0
   -1.2752   -2.1716   -0.3045 H   0  0  0  0  0  0  0  0  0  0  0  0
    1.6639    2.0871    1.2728 H   0  0  0  0  0  0  0  0  0  0  0  0
   -2.4737    4.8441   -2.4708 H   0  0  0  0  0  0  0  0  0  0  0  0
   -3.4501    4.4240   -1.0221 H   0  0  0  0  0  0  0  0  0  0  0  0
   -2.6261    5.9787   -1.1273 H   0  0  0  0  0  0  0  0  0  0  0  0
    2.2740    1.7474   -1.0145 H   0  0  0  0  0  0  0  0  0  0  0  0
    0.8429    0.8328   -1.3976 H   0  0  0  0  0  0  0  0  0  0  0  0
    3.6237   -2.3156   -1.9847 H   0  0  0  0  0  0  0  0  0  0  0  0
    3.0779   -3.0295   -0.4688 H   0  0  0  0  0  0  0  0  0  0  0  0
    4.7348   -3.3091   -1.0031 H   0  0  0  0  0  0  0  0  0  0  0  0
    6.0672    0.1115   -0.3797 H   0  0  0  0  0  0  0  0  0  0  0  0
    5.7278   -0.7708   -1.8647 H   0  0  0  0  0  0  0  0  0  0  0  0
    6.5478   -1.5991   -0.5187 H   0  0  0  0  0  0  0  0  0  0  0  0
    3.6037   -1.9828    1.7030 H   0  0  0  0  0  0  0  0  0  0  0  0
    5.3510   -2.2142    1.5273 H   0  0  0  0  0  0  0  0  0  0  0  0
    4.6752   -0.5885    1.8293 H   0  0  0  0  0  0  0  0  0  0  0  0
   -3.8005   -0.1535    1.2005 H   0  0  0  0  0  0  0  0  0  0  0  0
   -4.9154   -1.6887    2.7685 H   0  0  0  0  0  0  0  0  0  0  0  0
   -1.1219   -2.6487    4.5642 H   0  0  0  0  0  0  0  0  0  0  0  0
    0.0201   -1.1407    2.9710 H   0  0  0  0  0  0  0  0  0  0  0  0
   -4.4109   -1.0893   -3.0278 H   0  0  0  0  0  0  0  0  0  0  0  0
   -2.8926   -1.2571   -3.9422 H   0  0  0  0  0  0  0  0  0  0  0  0
   -3.9200    0.1648   -4.1835 H   0  0  0  0  0  0  0  0  0  0  0  0
  1  2  1  0
  2  3  2  0
  3  4  1  0
  4  5  1  0
  5  6  2  0
  6  7  1  0
  7  8  2  0
  8  9  1  0
  9 10  1  0
 10 11  2  0
 11 12  1  0
 12 13  2  0
 13 14  1  0
 13 15  1  0
  9 16  1  0
 16 17  1  0
 17 18  2  0
 17 19  1  0
 19 20  1  0
 20 21  1  0
 20 22  1  0
 20 23  1  0
  7 24  1  0
 24 25  2  0
 25 26  1  0
 26 27  2  0
 27 28  1  0
 28 29  2  0
 27 30  1  0
  3 31  1  0
  6  2  1  0
 14  5  1  0
 14 10  1  0
 29 24  1  0
  1 32  1  0
  1 33  1  0
  1 34  1  0
  9 35  1  1
 15 36  1  0
 15 37  1  0
 15 38  1  0
 16 39  1  0
 16 40  1  0
 21 41  1  0
 21 42  1  0
 21 43  1  0
 22 44  1  0
 22 45  1  0
 22 46  1  0
 23 47  1  0
 23 48  1  0
 23 49  1  0
 25 50  1  0
 26 51  1  0
 28 52  1  0
 29 53  1  0
 31 54  1  0
 31 55  1  0
 31 56  1  0
M  END
$$$$
