
     RDKit          3D

 40 42  0  0  0  0  0  0  0  0999 V2000
    4.1403   -2.1206    2.3503 C   0  0  0  0  0  0  0  0  0  0  0  0
    3.6868   -2.0563    0.9249 C   0  0  0  0  0  0  0  0  0  0  0  0
    4.1549   -2.7246    0.0165 O   0  0  0  0  0  0  0  0  0  0  0  0
    2.6785   -1.1507    0.8040 O   0  0  0  0  0  0  0  0  0  0  0  0
    2.0837   -1.0748   -0.5060 C   0  0  0  0  0  0  0  0  0  0  0  0
    1.3854    0.2804   -0.6378 C   0  0  0  0  0  0  0  0  0  0  0  0
    0.7275    0.4721   -1.9828 C   0  0  0  0  0  0  0  0  0  0  0  0
   -0.6365    0.1164   -1.7603 O   0  0  0  0  0  0  0  0  0  0  0  0
   -0.9115    0.4958   -0.4059 C   0  0  0  0  0  0  0  0  0  0  0  0
   -1.9688   -0.4244    0.2408 C   0  0  0  0  0  0  0  0  0  0  0  0
   -1.5562   -1.8179    0.3207 N   0  0  0  0  0  0  0  0  0  0  0  0
   -0.9149   -2.3978    1.3790 C   0  0  0  0  0  0  0  0  0  0  0  0
   -0.7405   -3.6865    1.1803 N   0  0  0  0  0  0  0  0  0  0  0  0
   -1.2896   -3.9413   -0.0498 C   0  0  0  0  0  0  0  0  0  0  0  0
   -1.8086   -2.7911   -0.6024 C   0  0  0  0  0  0  0  0  0  0  0  0
   -1.4057    1.9622   -0.3616 C   0  0  0  0  0  0  0  0  0  0  0  0
   -0.8423    2.8543    0.5888 C   0  0  0  0  0  0  0  0  0  0  0  0
   -1.2282    4.1979    0.6434 C   0  0  0  0  0  0  0  0  0  0  0  0
   -2.1862    4.6759   -0.2400 C   0  0  0  0  0  0  0  0  0  0  0  0
   -2.6516    6.3277   -0.1862 Cl  0  0  0  0  0  0  0  0  0  0  0  0
   -2.7787    3.8215   -1.1632 C   0  0  0  0  0  0  0  0  0  0  0  0
   -2.3987    2.4708   -1.2222 C   0  0  0  0  0  0  0  0  0  0  0  0
   -3.2217    1.5005   -2.3903 Cl  0  0  0  0  0  0  0  0  0  0  0  0
    0.3255    0.3979    0.3359 O   0  0  0  0  0  0  0  0  0  0  0  0
    4.3078   -1.1111    2.7428 H   0  0  0  0  0  0  0  0  0  0  0  0
    3.3993   -2.6464    2.9500 H   0  0  0  0  0  0  0  0  0  0  0  0
    5.0937   -2.6572    2.3984 H   0  0  0  0  0  0  0  0  0  0  0  0
    2.8490   -1.1683   -1.2864 H   0  0  0  0  0  0  0  0  0  0  0  0
    1.3674   -1.9050   -0.5946 H   0  0  0  0  0  0  0  0  0  0  0  0
    2.1154    1.0780   -0.4335 H   0  0  0  0  0  0  0  0  0  0  0  0
    1.1541   -0.1419   -2.7835 H   0  0  0  0  0  0  0  0  0  0  0  0
    0.7662    1.5166   -2.2989 H   0  0  0  0  0  0  0  0  0  0  0  0
   -2.1830   -0.1089    1.2693 H   0  0  0  0  0  0  0  0  0  0  0  0
   -2.9139   -0.4265   -0.3118 H   0  0  0  0  0  0  0  0  0  0  0  0
   -0.6064   -1.8471    2.2567 H   0  0  0  0  0  0  0  0  0  0  0  0
   -1.2886   -4.9388   -0.4705 H   0  0  0  0  0  0  0  0  0  0  0  0
   -2.3142   -2.6007   -1.5405 H   0  0  0  0  0  0  0  0  0  0  0  0
   -0.0823    2.5103    1.2926 H   0  0  0  0  0  0  0  0  0  0  0  0
   -0.7702    4.8592    1.3765 H   0  0  0  0  0  0  0  0  0  0  0  0
   -3.5375    4.2007   -1.8425 H   0  0  0  0  0  0  0  0  0  0  0  0
  1  2  1  0
  2  3  2  0
  2  4  1  0
  4  5  1  0
  5  6  1  0
  6  7  1  0
  7  8  1  0
  8  9  1  0
  9 10  1  0
 10 11  1  0
 11 12  1  0
 12 13  2  0
 13 14  1  0
 14 15  2  0
  9 16  1  0
 16 17  2  0
 17 18  1  0
 18 19  2  0
 19 20  1  0
 19 21  1  0
 21 22  2  0
 22 23  1  0
  9 24  1  0
 15 11  1  0
 22 16  1  0
 24  6  1  0
  1 25  1  0
  1 26  1  0
  1 27  1  0
  5 28  1  0
  5 29  1  0
  6 30  1  0
  7 31  1  0
  7 32  1  0
 10 33  1  0
 10 34  1  0
 12 35  1  0
 14 36  1  0
 15 37  1  0
 17 38  1  0
 18 39  1  0
 21 40  1  0
M  END
$$$$
