
     RDKit          3D

 29 30  0  0  0  0  0  0  0  0999 V2000
   -1.2541   -2.5247    0.2230 C   0  0  0  0  0  0  0  0  0  0  0  0
   -1.4997   -1.3022   -0.6628 C   0  0  0  0  0  0  0  0  0  0  0  0
   -0.8576    0.0446   -0.2054 C   0  0  0  0  0  0  0  0  0  0  0  0
   -1.1365    1.0987   -1.2964 C   0  0  0  0  0  0  0  0  0  0  0  0
   -1.4580    0.8410   -2.4534 O   0  0  0  0  0  0  0  0  0  0  0  0
   -0.9680    2.4031   -0.9095 N   0  0  0  0  0  0  0  0  0  0  0  0
   -1.3183    2.8392    0.3253 C   0  0  0  0  0  0  0  0  0  0  0  0
   -1.6590    4.0000    0.5202 O   0  0  0  0  0  0  0  0  0  0  0  0
   -1.3833    1.9109    1.3154 N   0  0  0  0  0  0  0  0  0  0  0  0
   -1.5201    0.5668    1.0803 C   0  0  0  0  0  0  0  0  0  0  0  0
   -2.1198   -0.1294    1.8985 O   0  0  0  0  0  0  0  0  0  0  0  0
    0.6747   -0.1252   -0.0593 C   0  0  0  0  0  0  0  0  0  0  0  0
    1.3033   -0.1884    1.1988 C   0  0  0  0  0  0  0  0  0  0  0  0
    2.6877   -0.3524    1.3036 C   0  0  0  0  0  0  0  0  0  0  0  0
    3.4717   -0.4643    0.1574 C   0  0  0  0  0  0  0  0  0  0  0  0
    2.8704   -0.4372   -1.0987 C   0  0  0  0  0  0  0  0  0  0  0  0
    1.4848   -0.2760   -1.2067 C   0  0  0  0  0  0  0  0  0  0  0  0
   -0.1847   -2.6909    0.4231 H   0  0  0  0  0  0  0  0  0  0  0  0
   -1.7829   -2.4346    1.1835 H   0  0  0  0  0  0  0  0  0  0  0  0
   -1.6281   -3.4254   -0.2819 H   0  0  0  0  0  0  0  0  0  0  0  0
   -2.5868   -1.1578   -0.7576 H   0  0  0  0  0  0  0  0  0  0  0  0
   -1.1419   -1.5582   -1.6717 H   0  0  0  0  0  0  0  0  0  0  0  0
   -1.1344    3.0818   -1.6373 H   0  0  0  0  0  0  0  0  0  0  0  0
   -1.8271    2.2410    2.1599 H   0  0  0  0  0  0  0  0  0  0  0  0
    0.7387   -0.1339    2.1287 H   0  0  0  0  0  0  0  0  0  0  0  0
    3.1551   -0.4031    2.2857 H   0  0  0  0  0  0  0  0  0  0  0  0
    4.5469   -0.5949    0.2413 H   0  0  0  0  0  0  0  0  0  0  0  0
    3.4754   -0.5518   -1.9976 H   0  0  0  0  0  0  0  0  0  0  0  0
    1.0515   -0.2766   -2.2063 H   0  0  0  0  0  0  0  0  0  0  0  0
  1  2  1  0
  2  3  1  0
  3  4  1  0
  4  5  2  0
  4  6  1  0
  6  7  1  0
  7  8  2  0
  7  9  1  0
  9 10  1  0
 10 11  2  0
  3 12  1  0
 12 13  2  0
 13 14  1  0
 14 15  2  0
 15 16  1  0
 16 17  2  0
 10  3  1  0
 17 12  1  0
  1 18  1  0
  1 19  1  0
  1 20  1  0
  2 21  1  0
  2 22  1  0
  6 23  1  0
  9 24  1  0
 13 25  1  0
 14 26  1  0
 15 27  1  0
 16 28  1  0
 17 29  1  0
M  END
$$$$
