
     RDKit          3D

 22 22  0  0  0  0  0  0  0  0999 V2000
   -1.8807   -0.3500    0.2885 C   0  0  0  0  0  0  0  0  0  0  0  0
   -1.5635    0.7673   -0.6962 C   0  0  0  0  0  0  0  0  0  0  0  0
   -0.2498    1.4851   -0.3670 C   0  0  0  0  0  0  0  0  0  0  0  0
    0.7581    0.5996    0.3850 C   0  0  1  0  0  0  0  0  0  0  0  0
    0.6034   -0.8830   -0.0362 C   0  0  2  0  0  0  0  0  0  0  0  0
   -0.7857   -1.4214    0.3313 C   0  0  0  0  0  0  0  0  0  0  0  0
    1.6468   -1.7229    0.5636 N   0  0  0  0  0  0  0  0  0  0  0  0
    2.1355    1.0831    0.1767 N   0  0  0  0  0  0  0  0  0  0  0  0
   -2.8399   -0.8164    0.0367 H   0  0  0  0  0  0  0  0  0  0  0  0
   -2.0001    0.0827    1.2900 H   0  0  0  0  0  0  0  0  0  0  0  0
   -2.3824    1.4953   -0.7201 H   0  0  0  0  0  0  0  0  0  0  0  0
   -1.4977    0.3423   -1.7059 H   0  0  0  0  0  0  0  0  0  0  0  0
   -0.4585    2.3744    0.2416 H   0  0  0  0  0  0  0  0  0  0  0  0
    0.1758    1.8580   -1.3078 H   0  0  0  0  0  0  0  0  0  0  0  0
    0.5544    0.6750    1.4617 H   0  0  0  0  0  0  0  0  0  0  0  0
    0.7272   -0.9373   -1.1268 H   0  0  0  0  0  0  0  0  0  0  0  0
   -1.0411   -2.2378   -0.3565 H   0  0  0  0  0  0  0  0  0  0  0  0
   -0.7850   -1.8637    1.3363 H   0  0  0  0  0  0  0  0  0  0  0  0
    2.4996   -1.1541    0.5933 H   0  0  0  0  0  0  0  0  0  0  0  0
    1.8435   -2.5144   -0.0441 H   0  0  0  0  0  0  0  0  0  0  0  0
    2.1936    2.0560    0.4763 H   0  0  0  0  0  0  0  0  0  0  0  0
    2.3466    1.0822   -0.8205 H   0  0  0  0  0  0  0  0  0  0  0  0
  1  2  1  0
  2  3  1  0
  3  4  1  0
  4  5  1  0
  5  6  1  0
  5  7  1  0
  4  8  1  0
  6  1  1  0
  1  9  1  0
  1 10  1  0
  2 11  1  0
  2 12  1  0
  3 13  1  0
  3 14  1  0
  4 15  1  1
  5 16  1  6
  6 17  1  0
  6 18  1  0
  7 19  1  0
  7 20  1  0
  8 21  1  0
  8 22  1  0
M  END
$$$$
