
     RDKit          3D

 45 47  0  0  0  0  0  0  0  0999 V2000
   -4.5142   -0.0760   -1.8377 C   0  0  0  0  0  0  0  0  0  0  0  0
   -3.1251    0.4893   -1.9434 C   0  0  0  0  0  0  0  0  0  0  0  0
   -2.0210   -0.0507   -1.3904 C   0  0  0  0  0  0  0  0  0  0  0  0
   -1.9014   -1.3196   -0.5850 C   0  0  0  0  0  0  0  0  0  0  0  0
   -1.6254   -1.0544    0.8809 C   0  0  0  0  0  0  0  0  0  0  0  0
   -0.3324   -0.7138    1.3214 C   0  0  0  0  0  0  0  0  0  0  0  0
   -0.0846   -0.4691    2.6778 C   0  0  0  0  0  0  0  0  0  0  0  0
   -1.1305   -0.5282    3.6021 C   0  0  0  0  0  0  0  0  0  0  0  0
   -2.4183   -0.8400    3.1820 C   0  0  0  0  0  0  0  0  0  0  0  0
   -2.6572   -1.1032    1.8323 C   0  0  0  0  0  0  0  0  0  0  0  0
   -3.9231   -1.4221    1.4258 O   0  0  0  0  0  0  0  0  0  0  0  0
   -0.9611   -0.2982    4.9409 O   0  0  0  0  0  0  0  0  0  0  0  0
    1.2986   -0.1812    3.1061 C   0  0  0  0  0  0  0  0  0  0  0  0
    1.5411    0.0356    4.2916 O   0  0  0  0  0  0  0  0  0  0  0  0
    2.3658   -0.2278    2.0526 C   0  0  0  0  0  0  0  0  0  0  0  0
    1.7422    0.2136    0.7382 C   0  0  2  0  0  0  0  0  0  0  0  0
    0.6650   -0.6638    0.3770 O   0  0  0  0  0  0  0  0  0  0  0  0
    2.7744    0.2081   -0.3742 C   0  0  0  0  0  0  0  0  0  0  0  0
    3.4237    1.4006   -0.7354 C   0  0  0  0  0  0  0  0  0  0  0  0
    4.3934    1.4088   -1.7417 C   0  0  0  0  0  0  0  0  0  0  0  0
    4.7201    0.2214   -2.3871 C   0  0  0  0  0  0  0  0  0  0  0  0
    4.0951   -0.9699   -2.0428 C   0  0  0  0  0  0  0  0  0  0  0  0
    3.1265   -0.9785   -1.0379 C   0  0  0  0  0  0  0  0  0  0  0  0
    5.6602    0.1835   -3.3736 O   0  0  0  0  0  0  0  0  0  0  0  0
   -3.0374    1.7670   -2.7366 C   0  0  0  0  0  0  0  0  0  0  0  0
   -4.5691   -0.9992   -1.2584 H   0  0  0  0  0  0  0  0  0  0  0  0
   -4.9074   -0.2938   -2.8364 H   0  0  0  0  0  0  0  0  0  0  0  0
   -5.1787    0.6497   -1.3570 H   0  0  0  0  0  0  0  0  0  0  0  0
   -1.0688    0.4574   -1.5438 H   0  0  0  0  0  0  0  0  0  0  0  0
   -2.7771   -1.9653   -0.6997 H   0  0  0  0  0  0  0  0  0  0  0  0
   -1.0811   -1.9186   -1.0026 H   0  0  0  0  0  0  0  0  0  0  0  0
   -3.2166   -0.8818    3.9168 H   0  0  0  0  0  0  0  0  0  0  0  0
   -4.5233   -1.3789    2.1888 H   0  0  0  0  0  0  0  0  0  0  0  0
   -0.0074   -0.1142    5.1026 H   0  0  0  0  0  0  0  0  0  0  0  0
    2.7478   -1.2542    2.0076 H   0  0  0  0  0  0  0  0  0  0  0  0
    3.1811    0.4448    2.3408 H   0  0  0  0  0  0  0  0  0  0  0  0
    1.3283    1.2297    0.8206 H   0  0  0  0  0  0  0  0  0  0  0  0
    3.1782    2.3354   -0.2353 H   0  0  0  0  0  0  0  0  0  0  0  0
    4.8788    2.3434   -2.0044 H   0  0  0  0  0  0  0  0  0  0  0  0
    4.3594   -1.8904   -2.5557 H   0  0  0  0  0  0  0  0  0  0  0  0
    2.6438   -1.9193   -0.7802 H   0  0  0  0  0  0  0  0  0  0  0  0
    5.9982    1.0826   -3.5154 H   0  0  0  0  0  0  0  0  0  0  0  0
   -2.0145    2.1542   -2.7911 H   0  0  0  0  0  0  0  0  0  0  0  0
   -3.3846    1.6011   -3.7617 H   0  0  0  0  0  0  0  0  0  0  0  0
   -3.6614    2.5413   -2.2783 H   0  0  0  0  0  0  0  0  0  0  0  0
  1  2  1  0
  2  3  2  3
  3  4  1  0
  4  5  1  0
  5  6  2  0
  6  7  1  0
  7  8  2  0
  8  9  1  0
  9 10  2  0
 10 11  1  0
  8 12  1  0
  7 13  1  0
 13 14  2  0
 13 15  1  0
 15 16  1  0
 16 17  1  0
 16 18  1  0
 18 19  2  0
 19 20  1  0
 20 21  2  0
 21 22  1  0
 22 23  2  0
 21 24  1  0
  2 25  1  0
 10  5  1  0
 17  6  1  0
 23 18  1  0
  1 26  1  0
  1 27  1  0
  1 28  1  0
  3 29  1  0
  4 30  1  0
  4 31  1  0
  9 32  1  0
 11 33  1  0
 12 34  1  0
 15 35  1  0
 15 36  1  0
 16 37  1  1
 19 38  1  0
 20 39  1  0
 22 40  1  0
 23 41  1  0
 24 42  1  0
 25 43  1  0
 25 44  1  0
 25 45  1  0
M  END
$$$$
