
     RDKit          3D

 45 47  0  0  0  0  0  0  0  0999 V2000
   -7.2443    1.7848    0.7439 C   0  0  0  0  0  0  0  0  0  0  0  0
   -6.9593    1.2212   -0.6381 C   0  0  0  0  0  0  0  0  0  0  0  0
   -5.5284    0.7887   -0.7942 C   0  0  0  0  0  0  0  0  0  0  0  0
   -5.0835   -0.4431   -0.3297 C   0  0  0  0  0  0  0  0  0  0  0  0
   -3.8103   -0.8859   -0.4569 N   0  0  0  0  0  0  0  0  0  0  0  0
   -2.9167   -0.0802   -1.0759 C   0  0  0  0  0  0  0  0  0  0  0  0
   -3.2740    1.1790   -1.5571 C   0  0  0  0  0  0  0  0  0  0  0  0
   -4.5923    1.6152   -1.4082 C   0  0  0  0  0  0  0  0  0  0  0  0
   -1.5103   -0.5854   -1.3004 C   0  0  0  0  0  0  0  0  0  0  0  0
   -1.1771   -1.8777   -0.5481 C   0  0  0  0  0  0  0  0  0  0  0  0
    0.1183   -2.3553   -0.9231 O   0  0  0  0  0  0  0  0  0  0  0  0
    1.2120   -1.9260   -0.2290 C   0  0  0  0  0  0  0  0  0  0  0  0
    2.4073   -2.5682   -0.5700 C   0  0  0  0  0  0  0  0  0  0  0  0
    3.6129   -2.2142    0.0366 C   0  0  0  0  0  0  0  0  0  0  0  0
    3.6446   -1.1990    0.9961 C   0  0  0  0  0  0  0  0  0  0  0  0
    2.4445   -0.5691    1.3496 C   0  0  0  0  0  0  0  0  0  0  0  0
    1.2359   -0.9315    0.7423 C   0  0  0  0  0  0  0  0  0  0  0  0
    4.9515   -0.7592    1.6213 C   0  0  0  0  0  0  0  0  0  0  0  0
    5.8878   -0.0835    0.6230 C   0  0  0  0  0  0  0  0  0  0  0  0
    5.4391    1.3122    0.2187 C   0  0  0  0  0  0  0  0  0  0  0  0
    4.3210    1.6240   -0.1646 O   0  0  0  0  0  0  0  0  0  0  0  0
    6.4482    2.2207    0.3115 N   0  0  0  0  0  0  0  0  0  0  0  0
    7.5542    1.8775    1.0075 C   0  0  0  0  0  0  0  0  0  0  0  0
    8.4237    2.6502    1.3754 O   0  0  0  0  0  0  0  0  0  0  0  0
    7.5417    0.1734    1.3741 S   0  0  0  0  0  0  0  0  0  0  0  0
   -6.5245    2.5711    1.0095 H   0  0  0  0  0  0  0  0  0  0  0  0
   -7.1876    1.0027    1.5123 H   0  0  0  0  0  0  0  0  0  0  0  0
   -8.2497    2.2239    0.7783 H   0  0  0  0  0  0  0  0  0  0  0  0
   -7.6282    0.3780   -0.8404 H   0  0  0  0  0  0  0  0  0  0  0  0
   -7.1981    1.9823   -1.3909 H   0  0  0  0  0  0  0  0  0  0  0  0
   -5.7565   -1.1322    0.1686 H   0  0  0  0  0  0  0  0  0  0  0  0
   -2.5454    1.8125   -2.0539 H   0  0  0  0  0  0  0  0  0  0  0  0
   -4.8764    2.5967   -1.7853 H   0  0  0  0  0  0  0  0  0  0  0  0
   -0.8032    0.2012   -1.0117 H   0  0  0  0  0  0  0  0  0  0  0  0
   -1.3671   -0.7460   -2.3756 H   0  0  0  0  0  0  0  0  0  0  0  0
   -1.2868   -1.7776    0.5369 H   0  0  0  0  0  0  0  0  0  0  0  0
   -1.8798   -2.6623   -0.8545 H   0  0  0  0  0  0  0  0  0  0  0  0
    2.3957   -3.3525   -1.3242 H   0  0  0  0  0  0  0  0  0  0  0  0
    4.5249   -2.7346   -0.2562 H   0  0  0  0  0  0  0  0  0  0  0  0
    2.4372    0.2311    2.0894 H   0  0  0  0  0  0  0  0  0  0  0  0
    0.3422   -0.3973    1.0412 H   0  0  0  0  0  0  0  0  0  0  0  0
    4.7398   -0.0865    2.4643 H   0  0  0  0  0  0  0  0  0  0  0  0
    5.4245   -1.6547    2.0535 H   0  0  0  0  0  0  0  0  0  0  0  0
    6.0333   -0.6764   -0.2888 H   0  0  0  0  0  0  0  0  0  0  0  0
    6.2594    3.1927    0.1227 H   0  0  0  0  0  0  0  0  0  0  0  0
  1  2  1  0
  2  3  1  0
  3  4  2  0
  4  5  1  0
  5  6  2  0
  6  7  1  0
  7  8  2  0
  6  9  1  0
  9 10  1  0
 10 11  1  0
 11 12  1  0
 12 13  2  0
 13 14  1  0
 14 15  2  0
 15 16  1  0
 16 17  2  0
 15 18  1  0
 18 19  1  0
 19 20  1  0
 20 21  2  0
 20 22  1  0
 22 23  1  0
 23 24  2  0
 23 25  1  0
  8  3  1  0
 17 12  1  0
 25 19  1  0
  1 26  1  0
  1 27  1  0
  1 28  1  0
  2 29  1  0
  2 30  1  0
  4 31  1  0
  7 32  1  0
  8 33  1  0
  9 34  1  0
  9 35  1  0
 10 36  1  0
 10 37  1  0
 13 38  1  0
 14 39  1  0
 16 40  1  0
 17 41  1  0
 18 42  1  0
 18 43  1  0
 19 44  1  0
 22 45  1  0
M  END
$$$$
