
     RDKit          3D

 54 58  0  0  0  0  0  0  0  0999 V2000
    8.3349   -1.4733   -2.4641 C   0  0  0  0  0  0  0  0  0  0  0  0
    7.7335   -1.5902   -1.1808 O   0  0  0  0  0  0  0  0  0  0  0  0
    6.6662   -0.7757   -0.9214 C   0  0  0  0  0  0  0  0  0  0  0  0
    6.1389    0.1888   -1.7832 C   0  0  0  0  0  0  0  0  0  0  0  0
    5.0467    0.9721   -1.4268 C   0  0  0  0  0  0  0  0  0  0  0  0
    4.5909    1.8853   -2.3044 N   0  0  0  0  0  0  0  0  0  0  0  0
    3.5375    2.6520   -1.9483 C   0  0  0  0  0  0  0  0  0  0  0  0
    2.8877    2.5482   -0.7381 C   0  0  0  0  0  0  0  0  0  0  0  0
    3.3475    1.5853    0.1538 C   0  0  0  0  0  0  0  0  0  0  0  0
    4.4592    0.7815   -0.1608 C   0  0  0  0  0  0  0  0  0  0  0  0
    4.9904   -0.1886    0.7130 C   0  0  0  0  0  0  0  0  0  0  0  0
    6.0869   -0.9581    0.3308 C   0  0  0  0  0  0  0  0  0  0  0  0
    2.7530    1.4638    1.3918 O   0  0  0  0  0  0  0  0  0  0  0  0
    1.4402    1.0452    1.4242 C   0  0  0  0  0  0  0  0  0  0  0  0
    0.6657    1.5361    2.4762 C   0  0  0  0  0  0  0  0  0  0  0  0
   -0.6769    1.1519    2.6295 C   0  0  0  0  0  0  0  0  0  0  0  0
   -1.2584    0.2415    1.7128 C   0  0  0  0  0  0  0  0  0  0  0  0
   -0.4465   -0.2519    0.6638 C   0  0  0  0  0  0  0  0  0  0  0  0
    0.8887    0.1369    0.5256 C   0  0  0  0  0  0  0  0  0  0  0  0
   -2.6184   -0.1122    1.9044 C   0  0  0  0  0  0  0  0  0  0  0  0
   -3.3666    0.4054    2.9731 C   0  0  0  0  0  0  0  0  0  0  0  0
   -2.7764    1.2930    3.8642 C   0  0  0  0  0  0  0  0  0  0  0  0
   -1.4434    1.6638    3.6902 C   0  0  0  0  0  0  0  0  0  0  0  0
   -3.3091   -1.0493    0.9815 C   0  0  0  0  0  0  0  0  0  0  0  0
   -2.8806   -2.1889    0.8707 O   0  0  0  0  0  0  0  0  0  0  0  0
   -4.3882   -0.4798    0.3342 N   0  0  0  0  0  0  0  0  0  0  0  0
   -5.2823   -1.0989   -0.5708 C   0  0  0  0  0  0  0  0  0  0  0  0
   -5.2306   -2.4646   -0.8701 C   0  0  0  0  0  0  0  0  0  0  0  0
   -6.1864   -3.0485   -1.7061 C   0  0  0  0  0  0  0  0  0  0  0  0
   -7.2138   -2.2771   -2.2373 C   0  0  0  0  0  0  0  0  0  0  0  0
   -7.2703   -0.9136   -1.9546 C   0  0  0  0  0  0  0  0  0  0  0  0
   -6.2832   -0.3007   -1.1718 C   0  0  0  0  0  0  0  0  0  0  0  0
   -6.4640    1.0634   -0.8530 N   0  0  0  0  0  0  0  0  0  0  0  0
    9.1532   -2.1984   -2.5163 H   0  0  0  0  0  0  0  0  0  0  0  0
    8.7647   -0.4766   -2.6088 H   0  0  0  0  0  0  0  0  0  0  0  0
    7.6221   -1.7173   -3.2588 H   0  0  0  0  0  0  0  0  0  0  0  0
    6.5692    0.3633   -2.7646 H   0  0  0  0  0  0  0  0  0  0  0  0
    3.2243    3.3794   -2.6921 H   0  0  0  0  0  0  0  0  0  0  0  0
    2.0534    3.1948   -0.4962 H   0  0  0  0  0  0  0  0  0  0  0  0
    4.5498   -0.3499    1.6944 H   0  0  0  0  0  0  0  0  0  0  0  0
    6.4897   -1.7039    1.0127 H   0  0  0  0  0  0  0  0  0  0  0  0
    1.1226    2.2268    3.1819 H   0  0  0  0  0  0  0  0  0  0  0  0
   -0.8436   -0.9690   -0.0542 H   0  0  0  0  0  0  0  0  0  0  0  0
    1.4796   -0.2942   -0.2781 H   0  0  0  0  0  0  0  0  0  0  0  0
   -4.3988    0.0978    3.1247 H   0  0  0  0  0  0  0  0  0  0  0  0
   -3.3460    1.6891    4.7012 H   0  0  0  0  0  0  0  0  0  0  0  0
   -0.9982    2.3570    4.4025 H   0  0  0  0  0  0  0  0  0  0  0  0
   -4.5672    0.4951    0.5204 H   0  0  0  0  0  0  0  0  0  0  0  0
   -4.4667   -3.1123   -0.4516 H   0  0  0  0  0  0  0  0  0  0  0  0
   -6.1339   -4.1126   -1.9233 H   0  0  0  0  0  0  0  0  0  0  0  0
   -7.9699   -2.7342   -2.8701 H   0  0  0  0  0  0  0  0  0  0  0  0
   -8.0763   -0.3149   -2.3713 H   0  0  0  0  0  0  0  0  0  0  0  0
   -7.1029    1.1706   -0.0683 H   0  0  0  0  0  0  0  0  0  0  0  0
   -5.5981    1.5664   -0.7057 H   0  0  0  0  0  0  0  0  0  0  0  0
  1  2  1  0
  2  3  1  0
  3  4  2  0
  4  5  1  0
  5  6  2  0
  6  7  1  0
  7  8  2  0
  8  9  1  0
  9 10  2  0
 10 11  1  0
 11 12  2  0
  9 13  1  0
 13 14  1  0
 14 15  2  0
 15 16  1  0
 16 17  2  0
 17 18  1  0
 18 19  2  0
 17 20  1  0
 20 21  2  0
 21 22  1  0
 22 23  2  0
 20 24  1  0
 24 25  2  0
 24 26  1  0
 26 27  1  0
 27 28  2  0
 28 29  1  0
 29 30  2  0
 30 31  1  0
 31 32  2  0
 32 33  1  0
 12  3  1  0
 10  5  1  0
 19 14  1  0
 23 16  1  0
 32 27  1  0
  1 34  1  0
  1 35  1  0
  1 36  1  0
  4 37  1  0
  7 38  1  0
  8 39  1  0
 11 40  1  0
 12 41  1  0
 15 42  1  0
 18 43  1  0
 19 44  1  0
 21 45  1  0
 22 46  1  0
 23 47  1  0
 26 48  1  0
 28 49  1  0
 29 50  1  0
 30 51  1  0
 31 52  1  0
 33 53  1  0
 33 54  1  0
M  END
$$$$
