
     RDKit          3D

 49 53  0  0  0  0  0  0  0  0999 V2000
   -0.7534    1.4765    0.3976 C   0  0  0  0  0  0  0  0  0  0  0  0
    0.4281    0.6663   -0.1779 C   0  0  0  0  0  0  0  0  0  0  0  0
    0.6636   -0.6804    0.4093 N   0  0  0  0  0  0  0  0  0  0  0  0
   -0.3910   -1.3609    1.1886 C   0  0  0  0  0  0  0  0  0  0  0  0
   -1.7297   -0.7647    0.9300 C   0  0  0  0  0  0  0  0  0  0  0  0
   -1.9009    0.5548    0.5665 C   0  0  0  0  0  0  0  0  0  0  0  0
   -3.2329    0.7866    0.3541 N   0  0  0  0  0  0  0  0  0  0  0  0
   -3.9569   -0.3680    0.6260 C   0  0  0  0  0  0  0  0  0  0  0  0
   -3.0227   -1.3531    0.9943 C   0  0  0  0  0  0  0  0  0  0  0  0
   -3.4923   -2.6407    1.3321 C   0  0  0  0  0  0  0  0  0  0  0  0
   -4.8608   -2.8950    1.2894 C   0  0  0  0  0  0  0  0  0  0  0  0
   -5.7735   -1.9154    0.9208 C   0  0  0  0  0  0  0  0  0  0  0  0
   -5.3400   -0.6301    0.5772 C   0  0  0  0  0  0  0  0  0  0  0  0
   -5.3097   -4.1168    1.6107 F   0  0  0  0  0  0  0  0  0  0  0  0
   -3.8170    2.0642   -0.0466 C   0  0  0  0  0  0  0  0  0  0  0  0
   -3.9532    2.2557   -1.5288 C   0  0  0  0  0  0  0  0  0  0  0  0
   -4.6265    3.1317   -2.0622 O   0  0  0  0  0  0  0  0  0  0  0  0
   -3.2195    1.4252   -2.2957 O   0  0  0  0  0  0  0  0  0  0  0  0
    1.8252   -1.4169    0.1880 C   0  0  0  0  0  0  0  0  0  0  0  0
    2.0304   -2.5390    0.6449 O   0  0  0  0  0  0  0  0  0  0  0  0
    2.8794   -0.8077   -0.6417 C   0  0  0  0  0  0  0  0  0  0  0  0
    2.7857   -0.9786   -2.0314 C   0  0  0  0  0  0  0  0  0  0  0  0
    3.7488   -0.4140   -2.8578 C   0  0  0  0  0  0  0  0  0  0  0  0
    4.8032    0.3131   -2.2965 C   0  0  0  0  0  0  0  0  0  0  0  0
    4.9169    0.4795   -0.9038 C   0  0  0  0  0  0  0  0  0  0  0  0
    5.9854    1.2125   -0.3541 C   0  0  0  0  0  0  0  0  0  0  0  0
    6.1095    1.3766    1.0268 C   0  0  0  0  0  0  0  0  0  0  0  0
    5.1678    0.8128    1.8820 C   0  0  0  0  0  0  0  0  0  0  0  0
    4.0990    0.0848    1.3536 C   0  0  0  0  0  0  0  0  0  0  0  0
    3.9491   -0.0924   -0.0420 C   0  0  0  0  0  0  0  0  0  0  0  0
   -0.4665    1.8854    1.3764 H   0  0  0  0  0  0  0  0  0  0  0  0
   -0.9821    2.3172   -0.2642 H   0  0  0  0  0  0  0  0  0  0  0  0
    0.2503    0.5040   -1.2505 H   0  0  0  0  0  0  0  0  0  0  0  0
    1.3465    1.2650   -0.0886 H   0  0  0  0  0  0  0  0  0  0  0  0
   -0.3895   -2.4293    0.9586 H   0  0  0  0  0  0  0  0  0  0  0  0
   -0.1355   -1.2366    2.2464 H   0  0  0  0  0  0  0  0  0  0  0  0
   -2.8121   -3.4360    1.6232 H   0  0  0  0  0  0  0  0  0  0  0  0
   -6.8301   -2.1578    0.8981 H   0  0  0  0  0  0  0  0  0  0  0  0
   -6.0601    0.1292    0.2816 H   0  0  0  0  0  0  0  0  0  0  0  0
   -4.8088    2.1272    0.4157 H   0  0  0  0  0  0  0  0  0  0  0  0
   -3.1923    2.8649    0.3678 H   0  0  0  0  0  0  0  0  0  0  0  0
   -3.4681    1.6740   -3.2135 H   0  0  0  0  0  0  0  0  0  0  0  0
    1.9668   -1.5539   -2.4600 H   0  0  0  0  0  0  0  0  0  0  0  0
    3.6954   -0.5415   -3.9393 H   0  0  0  0  0  0  0  0  0  0  0  0
    5.5500    0.7447   -2.9645 H   0  0  0  0  0  0  0  0  0  0  0  0
    6.7339    1.6572   -1.0038 H   0  0  0  0  0  0  0  0  0  0  0  0
    6.9415    1.9423    1.4348 H   0  0  0  0  0  0  0  0  0  0  0  0
    5.2597    0.9317    2.9595 H   0  0  0  0  0  0  0  0  0  0  0  0
    3.3882   -0.3544    2.0484 H   0  0  0  0  0  0  0  0  0  0  0  0
  1  2  1  0
  2  3  1  0
  3  4  1  0
  4  5  1  0
  5  6  2  0
  6  7  1  0
  7  8  1  0
  8  9  2  0
  9 10  1  0
 10 11  2  0
 11 12  1  0
 12 13  2  0
 11 14  1  0
  7 15  1  0
 15 16  1  0
 16 17  2  0
 16 18  1  0
  3 19  1  0
 19 20  2  0
 19 21  1  0
 21 22  2  0
 22 23  1  0
 23 24  2  0
 24 25  1  0
 25 26  2  0
 26 27  1  0
 27 28  2  0
 28 29  1  0
 29 30  2  0
  6  1  1  0
  9  5  1  0
 13  8  1  0
 30 21  1  0
 30 25  1  0
  1 31  1  0
  1 32  1  0
  2 33  1  0
  2 34  1  0
  4 35  1  0
  4 36  1  0
 10 37  1  0
 12 38  1  0
 13 39  1  0
 15 40  1  0
 15 41  1  0
 18 42  1  0
 22 43  1  0
 23 44  1  0
 24 45  1  0
 26 46  1  0
 27 47  1  0
 28 48  1  0
 29 49  1  0
M  END
$$$$
