
     RDKit          3D

111118  0  0  0  0  0  0  0  0999 V2000
  -11.5168    1.3762    0.2881 C   0  0  0  0  0  0  0  0  0  0  0  0
  -10.2143    1.8132    0.9955 C   0  0  0  0  0  0  0  0  0  0  0  0
   -9.3421    2.6208    0.0009 C   0  0  0  0  0  0  0  0  0  0  0  0
   -8.0539    1.9501   -0.5025 C   0  0  0  0  0  0  0  0  0  0  0  0
   -8.0007    0.4405   -0.4425 C   0  0  0  0  0  0  0  0  0  0  0  0
   -8.7520   -0.2068    0.4738 C   0  0  0  0  0  0  0  0  0  0  0  0
   -9.4768    0.5755    1.5413 C   0  0  0  0  0  0  0  0  0  0  0  0
   -8.9042   -1.6699    0.5103 C   0  0  0  0  0  0  0  0  0  0  0  0
   -8.4966   -2.4111    1.6274 C   0  0  0  0  0  0  0  0  0  0  0  0
   -8.6764   -3.7969    1.6566 C   0  0  0  0  0  0  0  0  0  0  0  0
   -9.2685   -4.4456    0.5750 C   0  0  0  0  0  0  0  0  0  0  0  0
   -9.6839   -3.7221   -0.5404 C   0  0  0  0  0  0  0  0  0  0  0  0
   -9.5066   -2.3376   -0.5686 C   0  0  0  0  0  0  0  0  0  0  0  0
   -9.4893   -6.1481    0.6105 Cl  0  0  0  0  0  0  0  0  0  0  0  0
   -7.0341   -0.2406   -1.4112 C   0  0  0  0  0  0  0  0  0  0  0  0
   -5.8036    0.5258   -1.6447 N   0  0  0  0  0  0  0  0  0  0  0  0
   -5.0754    0.1227   -2.8588 C   0  0  0  0  0  0  0  0  0  0  0  0
   -3.9895   -0.9544   -2.6723 C   0  0  0  0  0  0  0  0  0  0  0  0
   -3.0212   -0.5441   -1.6249 N   0  0  0  0  0  0  0  0  0  0  0  0
   -3.7145   -0.3514   -0.3374 C   0  0  0  0  0  0  0  0  0  0  0  0
   -4.8933    0.6520   -0.4847 C   0  0  0  0  0  0  0  0  0  0  0  0
   -1.7147   -1.0547   -1.6395 C   0  0  0  0  0  0  0  0  0  0  0  0
   -0.6960   -0.6117   -0.7497 C   0  0  0  0  0  0  0  0  0  0  0  0
    0.6516   -1.0487   -0.8758 C   0  0  0  0  0  0  0  0  0  0  0  0
    1.0058   -1.9277   -1.9074 C   0  0  0  0  0  0  0  0  0  0  0  0
    0.0002   -2.3989   -2.7637 C   0  0  0  0  0  0  0  0  0  0  0  0
   -1.3219   -1.9868   -2.6133 C   0  0  0  0  0  0  0  0  0  0  0  0
    2.3778   -2.4204   -2.1927 C   0  0  0  0  0  0  0  0  0  0  0  0
    2.5197   -3.4418   -2.8378 O   0  0  0  0  0  0  0  0  0  0  0  0
    3.4564   -1.6400   -1.7499 N   0  0  0  0  0  0  0  0  0  0  0  0
    5.0151   -2.0306   -2.1936 S   0  0  0  0  0  6  0  0  0  0  0  0
    5.2091   -1.6352   -3.5685 O   0  0  0  0  0  0  0  0  0  0  0  0
    5.3257   -3.3640   -1.7177 O   0  0  0  0  0  0  0  0  0  0  0  0
    6.0105   -0.9118   -1.2247 C   0  0  0  0  0  0  0  0  0  0  0  0
    6.4459    0.2916   -1.7783 C   0  0  0  0  0  0  0  0  0  0  0  0
    7.4226    1.0467   -1.0984 C   0  0  0  0  0  0  0  0  0  0  0  0
    8.0102    0.6163    0.1119 C   0  0  0  0  0  0  0  0  0  0  0  0
    7.4739   -0.5587    0.6735 C   0  0  0  0  0  0  0  0  0  0  0  0
    6.5037   -1.3284    0.0124 C   0  0  0  0  0  0  0  0  0  0  0  0
    8.9876    1.3573    0.7691 N   0  0  0  0  0  0  0  0  0  0  0  0
    9.8620    0.7921    1.7957 C   0  0  0  0  0  0  0  0  0  0  0  0
   10.8710   -0.2238    1.2266 C   0  0  0  0  0  0  0  0  0  0  0  0
   11.5738   -0.9737    2.3732 C   0  0  0  0  0  0  0  0  0  0  0  0
   12.6767   -1.8791    1.8403 C   0  0  0  0  0  0  0  0  0  0  0  0
   13.6025   -1.1321    1.0625 O   0  0  0  0  0  0  0  0  0  0  0  0
   12.9977   -0.5425   -0.0844 C   0  0  0  0  0  0  0  0  0  0  0  0
   11.9233    0.4514    0.3309 C   0  0  0  0  0  0  0  0  0  0  0  0
    7.8282    2.3034   -1.7296 N   0  0  0  0  0  4  0  0  0  0  0  0
    6.9622    2.9558   -2.3225 O   0  0  0  0  0  0  0  0  0  0  0  0
    9.0239    2.6348   -1.6436 O   0  0  0  0  0  1  0  0  0  0  0  0
    1.5643   -0.8780    0.1423 O   0  0  0  0  0  0  0  0  0  0  0  0
    1.9456    0.3458    0.6239 C   0  0  0  0  0  0  0  0  0  0  0  0
    2.7437    0.2659    1.7733 C   0  0  0  0  0  0  0  0  0  0  0  0
    3.4174    1.2804    2.3566 N   0  0  0  0  0  0  0  0  0  0  0  0
    3.2352    2.4460    1.7245 C   0  0  0  0  0  0  0  0  0  0  0  0
    2.4434    2.6904    0.5974 C   0  0  0  0  0  0  0  0  0  0  0  0
    1.7474    1.5985    0.0344 C   0  0  0  0  0  0  0  0  0  0  0  0
    2.6024    4.0795    0.3018 C   0  0  0  0  0  0  0  0  0  0  0  0
    3.4845    4.6114    1.2227 C   0  0  0  0  0  0  0  0  0  0  0  0
    3.8608    3.6093    2.0743 N   0  0  0  0  0  0  0  0  0  0  0  0
  -10.6070    2.7119    2.1862 C   0  0  0  0  0  0  0  0  0  0  0  0
  -12.0947    2.2465   -0.0450 H   0  0  0  0  0  0  0  0  0  0  0  0
  -12.1602    0.7983    0.9607 H   0  0  0  0  0  0  0  0  0  0  0  0
  -11.3136    0.7576   -0.5918 H   0  0  0  0  0  0  0  0  0  0  0  0
   -9.9479    2.8977   -0.8748 H   0  0  0  0  0  0  0  0  0  0  0  0
   -9.0589    3.5912    0.4344 H   0  0  0  0  0  0  0  0  0  0  0  0
   -7.8978    2.2859   -1.5374 H   0  0  0  0  0  0  0  0  0  0  0  0
   -7.2125    2.3511    0.0781 H   0  0  0  0  0  0  0  0  0  0  0  0
   -8.7300    0.8732    2.2925 H   0  0  0  0  0  0  0  0  0  0  0  0
  -10.1913   -0.0631    2.0764 H   0  0  0  0  0  0  0  0  0  0  0  0
   -8.0393   -1.9146    2.4800 H   0  0  0  0  0  0  0  0  0  0  0  0
   -8.3576   -4.3662    2.5310 H   0  0  0  0  0  0  0  0  0  0  0  0
  -10.1528   -4.2209   -1.3857 H   0  0  0  0  0  0  0  0  0  0  0  0
   -9.8524   -1.7725   -1.4333 H   0  0  0  0  0  0  0  0  0  0  0  0
   -6.7875   -1.2666   -1.1013 H   0  0  0  0  0  0  0  0  0  0  0  0
   -7.5842   -0.3252   -2.3612 H   0  0  0  0  0  0  0  0  0  0  0  0
   -4.5850    1.0271   -3.2468 H   0  0  0  0  0  0  0  0  0  0  0  0
   -5.7685   -0.2035   -3.6489 H   0  0  0  0  0  0  0  0  0  0  0  0
   -3.5085   -1.0695   -3.6521 H   0  0  0  0  0  0  0  0  0  0  0  0
   -4.4433   -1.9185   -2.3948 H   0  0  0  0  0  0  0  0  0  0  0  0
   -3.0448    0.0400    0.4354 H   0  0  0  0  0  0  0  0  0  0  0  0
   -4.0973   -1.3237    0.0280 H   0  0  0  0  0  0  0  0  0  0  0  0
   -4.4498    1.6523   -0.5659 H   0  0  0  0  0  0  0  0  0  0  0  0
   -5.4541    0.6484    0.4610 H   0  0  0  0  0  0  0  0  0  0  0  0
   -0.9409    0.0855    0.0605 H   0  0  0  0  0  0  0  0  0  0  0  0
    0.2331   -3.1153   -3.5552 H   0  0  0  0  0  0  0  0  0  0  0  0
   -2.0423   -2.4413   -3.2899 H   0  0  0  0  0  0  0  0  0  0  0  0
    3.3131   -0.7659   -1.2560 H   0  0  0  0  0  0  0  0  0  0  0  0
    6.0686    0.6096   -2.7478 H   0  0  0  0  0  0  0  0  0  0  0  0
    7.8206   -0.9243    1.6413 H   0  0  0  0  0  0  0  0  0  0  0  0
    6.1820   -2.2720    0.4536 H   0  0  0  0  0  0  0  0  0  0  0  0
    9.5035    1.9766    0.1351 H   0  0  0  0  0  0  0  0  0  0  0  0
    9.2694    0.3496    2.6034 H   0  0  0  0  0  0  0  0  0  0  0  0
   10.4130    1.6211    2.2588 H   0  0  0  0  0  0  0  0  0  0  0  0
   10.3453   -0.9706    0.6184 H   0  0  0  0  0  0  0  0  0  0  0  0
   10.8442   -1.5622    2.9433 H   0  0  0  0  0  0  0  0  0  0  0  0
   12.0161   -0.2405    3.0630 H   0  0  0  0  0  0  0  0  0  0  0  0
   12.2652   -2.7040    1.2436 H   0  0  0  0  0  0  0  0  0  0  0  0
   13.2211   -2.3216    2.6798 H   0  0  0  0  0  0  0  0  0  0  0  0
   12.5806   -1.3282   -0.7279 H   0  0  0  0  0  0  0  0  0  0  0  0
   13.7821   -0.0286   -0.6518 H   0  0  0  0  0  0  0  0  0  0  0  0
   12.3963    1.2704    0.8908 H   0  0  0  0  0  0  0  0  0  0  0  0
   11.4563    0.8869   -0.5610 H   0  0  0  0  0  0  0  0  0  0  0  0
    2.9078   -0.6955    2.2466 H   0  0  0  0  0  0  0  0  0  0  0  0
    1.1558    1.7538   -0.8703 H   0  0  0  0  0  0  0  0  0  0  0  0
    2.1432    4.6238   -0.5180 H   0  0  0  0  0  0  0  0  0  0  0  0
    3.8830    5.6140    1.3348 H   0  0  0  0  0  0  0  0  0  0  0  0
    4.5099    3.6802    2.8573 H   0  0  0  0  0  0  0  0  0  0  0  0
  -11.2570    2.1751    2.8908 H   0  0  0  0  0  0  0  0  0  0  0  0
  -11.1465    3.6071    1.8563 H   0  0  0  0  0  0  0  0  0  0  0  0
   -9.7202    3.0429    2.7447 H   0  0  0  0  0  0  0  0  0  0  0  0
  1  2  1  0
  2  3  1  0
  3  4  1  0
  4  5  1  0
  5  6  2  0
  6  7  1  0
  6  8  1  0
  8  9  2  0
  9 10  1  0
 10 11  2  0
 11 12  1  0
 12 13  2  0
 11 14  1  0
  5 15  1  0
 15 16  1  0
 16 17  1  0
 17 18  1  0
 18 19  1  0
 19 20  1  0
 20 21  1  0
 19 22  1  0
 22 23  2  0
 23 24  1  0
 24 25  2  0
 25 26  1  0
 26 27  2  0
 25 28  1  0
 28 29  2  0
 28 30  1  0
 30 31  1  0
 31 32  2  0
 31 33  2  0
 31 34  1  0
 34 35  2  0
 35 36  1  0
 36 37  2  0
 37 38  1  0
 38 39  2  0
 37 40  1  0
 40 41  1  0
 41 42  1  0
 42 43  1  0
 43 44  1  0
 44 45  1  0
 45 46  1  0
 46 47  1  0
 36 48  1  0
 48 49  2  0
 48 50  1  0
 24 51  1  0
 51 52  1  0
 52 53  2  0
 53 54  1  0
 54 55  2  0
 55 56  1  0
 56 57  2  0
 56 58  1  0
 58 59  2  0
 59 60  1  0
  2 61  1  0
  7  2  1  0
 13  8  1  0
 21 16  1  0
 27 22  1  0
 39 34  1  0
 47 42  1  0
 57 52  1  0
 60 55  1  0
  1 62  1  0
  1 63  1  0
  1 64  1  0
  3 65  1  0
  3 66  1  0
  4 67  1  0
  4 68  1  0
  7 69  1  0
  7 70  1  0
  9 71  1  0
 10 72  1  0
 12 73  1  0
 13 74  1  0
 15 75  1  0
 15 76  1  0
 17 77  1  0
 17 78  1  0
 18 79  1  0
 18 80  1  0
 20 81  1  0
 20 82  1  0
 21 83  1  0
 21 84  1  0
 23 85  1  0
 26 86  1  0
 27 87  1  0
 30 88  1  0
 35 89  1  0
 38 90  1  0
 39 91  1  0
 40 92  1  0
 41 93  1  0
 41 94  1  0
 42 95  1  0
 43 96  1  0
 43 97  1  0
 44 98  1  0
 44 99  1  0
 46100  1  0
 46101  1  0
 47102  1  0
 47103  1  0
 53104  1  0
 57105  1  0
 58106  1  0
 59107  1  0
 60108  1  0
 61109  1  0
 61110  1  0
 61111  1  0
M  CHG  2  48   1  50  -1
M  END
$$$$
