
     RDKit          3D

 64 64  0  0  0  0  0  0  0  0999 V2000
   -9.0211    0.5668   -1.5065 C   0  0  0  0  0  0  0  0  0  0  0  0
   -7.7886    1.2624   -0.9555 C   0  0  0  0  0  0  0  0  0  0  0  0
   -6.4816    0.5130   -1.2261 C   0  0  0  0  0  0  0  0  0  0  0  0
   -6.4253   -0.8642   -0.5577 C   0  0  0  0  0  0  0  0  0  0  0  0
   -5.0761   -1.5781   -0.7236 C   0  0  0  0  0  0  0  0  0  0  0  0
   -3.8546   -0.8367   -0.1664 C   0  0  0  0  0  0  0  0  0  0  0  0
   -3.9901   -0.4805    1.3180 C   0  0  0  0  0  0  0  0  0  0  0  0
   -2.7298    0.1562    1.9162 C   0  0  0  0  0  0  0  0  0  0  0  0
   -2.3558    1.4831    1.2507 C   0  0  0  0  0  0  0  0  0  0  0  0
   -1.2442    2.2405    1.9818 C   0  0  0  0  0  0  0  0  0  0  0  0
    0.1640    2.0762    1.3952 C   0  0  0  0  0  0  0  0  0  0  0  0
    0.8198    0.7137    1.6284 C   0  0  0  0  0  0  0  0  0  0  0  0
    0.6979   -0.2210    0.4193 C   0  0  0  0  0  0  0  0  0  0  0  0
    1.5187   -1.5019    0.5992 C   0  0  0  0  0  0  0  0  0  0  0  0
    2.9152   -1.2369    0.7027 O   0  0  0  0  0  0  0  0  0  0  0  0
    3.5651   -1.0097   -0.4356 C   0  0  0  0  0  0  0  0  0  0  0  0
    3.2389   -0.9287   -1.7732 C   0  0  0  0  0  0  0  0  0  0  0  0
    4.4397   -0.6277   -2.4563 C   0  0  0  0  0  0  0  0  0  0  0  0
    5.4369   -0.5568   -1.5020 C   0  0  0  0  0  0  0  0  0  0  0  0
    4.8964   -0.7879   -0.2646 O   0  0  0  0  0  0  0  0  0  0  0  0
    6.8482   -0.2953   -1.6584 C   0  0  0  0  0  0  0  0  0  0  0  0
    7.3879   -0.0100   -2.7219 O   0  0  0  0  0  0  0  0  0  0  0  0
    7.4958   -0.4371   -0.4685 O   0  0  0  0  0  0  0  0  0  0  0  0
    8.9292   -0.2989   -0.4895 C   0  0  0  0  0  0  0  0  0  0  0  0
    9.3132    0.8196    0.4692 C   0  0  0  0  0  0  0  0  0  0  0  0
    9.5388   -1.6260   -0.0575 C   0  0  0  0  0  0  0  0  0  0  0  0
   -8.9091    0.3520   -2.5723 H   0  0  0  0  0  0  0  0  0  0  0  0
   -9.8997    1.2068   -1.3797 H   0  0  0  0  0  0  0  0  0  0  0  0
   -9.2202   -0.3703   -0.9799 H   0  0  0  0  0  0  0  0  0  0  0  0
   -7.9091    1.4183    0.1227 H   0  0  0  0  0  0  0  0  0  0  0  0
   -7.7137    2.2581   -1.4082 H   0  0  0  0  0  0  0  0  0  0  0  0
   -5.6617    1.1404   -0.8595 H   0  0  0  0  0  0  0  0  0  0  0  0
   -6.3357    0.3997   -2.3086 H   0  0  0  0  0  0  0  0  0  0  0  0
   -6.6663   -0.7740    0.5093 H   0  0  0  0  0  0  0  0  0  0  0  0
   -7.1960   -1.5129   -0.9884 H   0  0  0  0  0  0  0  0  0  0  0  0
   -4.9044   -1.7738   -1.7909 H   0  0  0  0  0  0  0  0  0  0  0  0
   -5.1444   -2.5616   -0.2389 H   0  0  0  0  0  0  0  0  0  0  0  0
   -2.9711   -1.4719   -0.3081 H   0  0  0  0  0  0  0  0  0  0  0  0
   -3.6793    0.0653   -0.7620 H   0  0  0  0  0  0  0  0  0  0  0  0
   -4.2222   -1.3893    1.8865 H   0  0  0  0  0  0  0  0  0  0  0  0
   -4.8287    0.2090    1.4649 H   0  0  0  0  0  0  0  0  0  0  0  0
   -1.8981   -0.5516    1.8602 H   0  0  0  0  0  0  0  0  0  0  0  0
   -2.9165    0.3280    2.9834 H   0  0  0  0  0  0  0  0  0  0  0  0
   -2.0814    1.3323    0.2001 H   0  0  0  0  0  0  0  0  0  0  0  0
   -3.2498    2.1200    1.2473 H   0  0  0  0  0  0  0  0  0  0  0  0
   -1.4822    3.3092    1.9121 H   0  0  0  0  0  0  0  0  0  0  0  0
   -1.2412    2.0031    3.0529 H   0  0  0  0  0  0  0  0  0  0  0  0
    0.1630    2.3353    0.3291 H   0  0  0  0  0  0  0  0  0  0  0  0
    0.7959    2.8283    1.8840 H   0  0  0  0  0  0  0  0  0  0  0  0
    1.8855    0.8879    1.8224 H   0  0  0  0  0  0  0  0  0  0  0  0
    0.4208    0.2315    2.5298 H   0  0  0  0  0  0  0  0  0  0  0  0
    1.0369    0.3175   -0.4724 H   0  0  0  0  0  0  0  0  0  0  0  0
   -0.3502   -0.4868    0.2495 H   0  0  0  0  0  0  0  0  0  0  0  0
    1.2120   -1.9945    1.5296 H   0  0  0  0  0  0  0  0  0  0  0  0
    1.3127   -2.2141   -0.2093 H   0  0  0  0  0  0  0  0  0  0  0  0
    2.2572   -1.0611   -2.2011 H   0  0  0  0  0  0  0  0  0  0  0  0
    4.5734   -0.4849   -3.5210 H   0  0  0  0  0  0  0  0  0  0  0  0
    9.3067   -0.0493   -1.4900 H   0  0  0  0  0  0  0  0  0  0  0  0
   10.4012    0.9435    0.5193 H   0  0  0  0  0  0  0  0  0  0  0  0
    8.8675    1.7693    0.1440 H   0  0  0  0  0  0  0  0  0  0  0  0
    8.9358    0.6218    1.4818 H   0  0  0  0  0  0  0  0  0  0  0  0
    9.3303   -1.8409    1.0005 H   0  0  0  0  0  0  0  0  0  0  0  0
    9.1164   -2.4537   -0.6416 H   0  0  0  0  0  0  0  0  0  0  0  0
   10.6270   -1.6211   -0.2008 H   0  0  0  0  0  0  0  0  0  0  0  0
  1  2  1  0
  2  3  1  0
  3  4  1  0
  4  5  1  0
  5  6  1  0
  6  7  1  0
  7  8  1  0
  8  9  1  0
  9 10  1  0
 10 11  1  0
 11 12  1  0
 12 13  1  0
 13 14  1  0
 14 15  1  0
 15 16  1  0
 16 17  2  0
 17 18  1  0
 18 19  2  0
 19 20  1  0
 19 21  1  0
 21 22  2  0
 21 23  1  0
 23 24  1  0
 24 25  1  0
 24 26  1  0
 20 16  1  0
  1 27  1  0
  1 28  1  0
  1 29  1  0
  2 30  1  0
  2 31  1  0
  3 32  1  0
  3 33  1  0
  4 34  1  0
  4 35  1  0
  5 36  1  0
  5 37  1  0
  6 38  1  0
  6 39  1  0
  7 40  1  0
  7 41  1  0
  8 42  1  0
  8 43  1  0
  9 44  1  0
  9 45  1  0
 10 46  1  0
 10 47  1  0
 11 48  1  0
 11 49  1  0
 12 50  1  0
 12 51  1  0
 13 52  1  0
 13 53  1  0
 14 54  1  0
 14 55  1  0
 17 56  1  0
 18 57  1  0
 24 58  1  0
 25 59  1  0
 25 60  1  0
 25 61  1  0
 26 62  1  0
 26 63  1  0
 26 64  1  0
M  END
$$$$
