
     RDKit          3D

 33 33  0  0  0  0  0  0  0  0999 V2000
   -4.9509   -0.8298    0.5735 C   0  0  0  0  0  0  0  0  0  0  0  0
   -3.6486   -1.4256    0.0506 C   0  0  0  0  0  0  0  0  0  0  0  0
   -2.7718   -0.3635   -0.6162 C   0  0  0  0  0  0  0  0  0  0  0  0
   -1.4287   -0.9291   -1.1001 C   0  0  0  0  0  0  0  0  0  0  0  0
   -0.6621   -1.5812   -0.0787 O   0  0  0  0  0  0  0  0  0  0  0  0
   -0.2145   -0.7248    0.9781 C   0  0  0  0  0  0  0  0  0  0  0  0
    0.8078    0.3019    0.5371 C   0  0  0  0  0  0  0  0  0  0  0  0
    2.1178   -0.0884    0.1922 C   0  0  0  0  0  0  0  0  0  0  0  0
    3.0585    0.8638   -0.1987 C   0  0  0  0  0  0  0  0  0  0  0  0
    2.6645    2.2016   -0.2800 C   0  0  0  0  0  0  0  0  0  0  0  0
    1.3799    2.6185    0.0589 C   0  0  0  0  0  0  0  0  0  0  0  0
    0.4566    1.6662    0.4808 C   0  0  0  0  0  0  0  0  0  0  0  0
    3.5746    3.1549   -0.6525 O   0  0  0  0  0  0  0  0  0  0  0  0
    4.3668    0.6157   -0.5381 O   0  0  0  0  0  0  0  0  0  0  0  0
    4.8712   -0.6411   -0.1144 C   0  0  0  0  0  0  0  0  0  0  0  0
   -5.5647   -1.6056    1.0522 H   0  0  0  0  0  0  0  0  0  0  0  0
   -4.7384   -0.0572    1.3240 H   0  0  0  0  0  0  0  0  0  0  0  0
   -5.5307   -0.3777   -0.2400 H   0  0  0  0  0  0  0  0  0  0  0  0
   -3.8921   -2.2103   -0.6736 H   0  0  0  0  0  0  0  0  0  0  0  0
   -3.1158   -1.9068    0.8782 H   0  0  0  0  0  0  0  0  0  0  0  0
   -2.6000    0.4524    0.0950 H   0  0  0  0  0  0  0  0  0  0  0  0
   -3.3079    0.0663   -1.4756 H   0  0  0  0  0  0  0  0  0  0  0  0
   -1.6106   -1.6772   -1.8804 H   0  0  0  0  0  0  0  0  0  0  0  0
   -0.8354   -0.1403   -1.5682 H   0  0  0  0  0  0  0  0  0  0  0  0
   -1.0598   -0.2581    1.4939 H   0  0  0  0  0  0  0  0  0  0  0  0
    0.2551   -1.3700    1.7288 H   0  0  0  0  0  0  0  0  0  0  0  0
    2.3683   -1.1431    0.2091 H   0  0  0  0  0  0  0  0  0  0  0  0
    1.1139    3.6716   -0.0067 H   0  0  0  0  0  0  0  0  0  0  0  0
   -0.5531    1.9873    0.7268 H   0  0  0  0  0  0  0  0  0  0  0  0
    4.3569    2.6474   -0.9453 H   0  0  0  0  0  0  0  0  0  0  0  0
    5.9580   -0.6286   -0.2480 H   0  0  0  0  0  0  0  0  0  0  0  0
    4.4655   -1.4479   -0.7388 H   0  0  0  0  0  0  0  0  0  0  0  0
    4.6696   -0.8413    0.9467 H   0  0  0  0  0  0  0  0  0  0  0  0
  1  2  1  0
  2  3  1  0
  3  4  1  0
  4  5  1  0
  5  6  1  0
  6  7  1  0
  7  8  2  0
  8  9  1  0
  9 10  2  0
 10 11  1  0
 11 12  2  0
 10 13  1  0
  9 14  1  0
 14 15  1  0
 12  7  1  0
  1 16  1  0
  1 17  1  0
  1 18  1  0
  2 19  1  0
  2 20  1  0
  3 21  1  0
  3 22  1  0
  4 23  1  0
  4 24  1  0
  6 25  1  0
  6 26  1  0
  8 27  1  0
 11 28  1  0
 12 29  1  0
 13 30  1  0
 15 31  1  0
 15 32  1  0
 15 33  1  0
M  END
$$$$
