
     RDKit          3D

 47 51  0  0  0  0  0  0  0  0999 V2000
   -0.5272   -0.7739   -3.1766 C   0  0  0  0  0  0  0  0  0  0  0  0
    0.2015    0.0145   -2.0852 C   0  0  1  0  0  0  0  0  0  0  0  0
   -0.7298    0.6392   -1.0232 C   0  0  0  0  0  0  0  0  0  0  0  0
   -0.9952    1.9509   -1.1720 C   0  0  0  0  0  0  0  0  0  0  0  0
   -1.7555    2.7072   -0.1897 C   0  0  0  0  0  0  0  0  0  0  0  0
   -2.2029    2.0929    0.9863 C   0  0  0  0  0  0  0  0  0  0  0  0
   -2.9066    2.8692    1.9269 C   0  0  0  0  0  0  0  0  0  0  0  0
   -3.1520    4.2286    1.6773 C   0  0  0  0  0  0  0  0  0  0  0  0
   -2.7057    4.8270    0.5043 C   0  0  0  0  0  0  0  0  0  0  0  0
   -2.0065    4.0678   -0.4267 C   0  0  0  0  0  0  0  0  0  0  0  0
   -3.5239    2.2818    3.4331 Cl  0  0  0  0  0  0  0  0  0  0  0  0
   -1.9135    0.6376    1.1562 C   0  0  0  0  0  0  0  0  0  0  0  0
   -2.3224    0.0590    2.1619 O   0  0  0  0  0  0  0  0  0  0  0  0
   -1.2036   -0.0386    0.1192 N   0  0  0  0  0  0  0  0  0  0  0  0
   -1.0160   -1.4386    0.3449 C   0  0  0  0  0  0  0  0  0  0  0  0
   -1.6175   -2.3838   -0.4895 C   0  0  0  0  0  0  0  0  0  0  0  0
   -1.4207   -3.7485   -0.2653 C   0  0  0  0  0  0  0  0  0  0  0  0
   -0.6415   -4.1763    0.8093 C   0  0  0  0  0  0  0  0  0  0  0  0
   -0.0712   -3.2417    1.6711 C   0  0  0  0  0  0  0  0  0  0  0  0
   -0.2624   -1.8778    1.4434 C   0  0  0  0  0  0  0  0  0  0  0  0
    1.2741   -0.7994   -1.5208 N   0  0  0  0  0  0  0  0  0  0  0  0
    2.2776   -0.1480   -0.8182 C   0  0  0  0  0  0  0  0  0  0  0  0
    2.5255    1.1692   -0.9875 N   0  0  0  0  0  0  0  0  0  0  0  0
    3.5188    1.7447   -0.2764 C   0  0  0  0  0  0  0  0  0  0  0  0
    4.3382    1.1743    0.6136 N   0  0  0  0  0  0  0  0  0  0  0  0
    4.0926   -0.1379    0.7643 C   0  0  0  0  0  0  0  0  0  0  0  0
    3.0983   -0.8103    0.0786 C   0  0  0  0  0  0  0  0  0  0  0  0
    3.1985   -2.1037    0.5126 N   0  0  0  0  0  0  0  0  0  0  0  0
    4.2140   -2.1577    1.4267 C   0  0  0  0  0  0  0  0  0  0  0  0
    4.7751   -0.9821    1.6000 N   0  0  0  0  0  0  0  0  0  0  0  0
   -1.4649   -0.2895   -3.4676 H   0  0  0  0  0  0  0  0  0  0  0  0
   -0.7348   -1.8071   -2.8933 H   0  0  0  0  0  0  0  0  0  0  0  0
    0.1042   -0.8342   -4.0718 H   0  0  0  0  0  0  0  0  0  0  0  0
    0.6777    0.8365   -2.6406 H   0  0  0  0  0  0  0  0  0  0  0  0
   -0.6050    2.5036   -2.0229 H   0  0  0  0  0  0  0  0  0  0  0  0
   -3.6955    4.8291    2.4047 H   0  0  0  0  0  0  0  0  0  0  0  0
   -2.8982    5.8813    0.3205 H   0  0  0  0  0  0  0  0  0  0  0  0
   -1.6542    4.5486   -1.3375 H   0  0  0  0  0  0  0  0  0  0  0  0
   -2.2792   -2.0661   -1.2903 H   0  0  0  0  0  0  0  0  0  0  0  0
   -1.9012   -4.4786   -0.9124 H   0  0  0  0  0  0  0  0  0  0  0  0
   -0.5116   -5.2397    0.9964 H   0  0  0  0  0  0  0  0  0  0  0  0
    0.4990   -3.5705    2.5366 H   0  0  0  0  0  0  0  0  0  0  0  0
    0.1713   -1.1540    2.1310 H   0  0  0  0  0  0  0  0  0  0  0  0
    0.9634   -1.6593   -1.0911 H   0  0  0  0  0  0  0  0  0  0  0  0
    3.6708    2.8056   -0.4497 H   0  0  0  0  0  0  0  0  0  0  0  0
    2.6212   -2.8771    0.2150 H   0  0  0  0  0  0  0  0  0  0  0  0
    4.4971   -3.0741    1.9281 H   0  0  0  0  0  0  0  0  0  0  0  0
  1  2  1  0
  2  3  1  0
  3  4  2  0
  4  5  1  0
  5  6  2  0
  6  7  1  0
  7  8  2  0
  8  9  1  0
  9 10  2  0
  7 11  1  0
  6 12  1  0
 12 13  2  0
 12 14  1  0
 14 15  1  0
 15 16  2  0
 16 17  1  0
 17 18  2  0
 18 19  1  0
 19 20  2  0
  2 21  1  0
 21 22  1  0
 22 23  2  0
 23 24  1  0
 24 25  2  0
 25 26  1  0
 26 27  2  0
 27 28  1  0
 28 29  1  0
 29 30  2  0
 14  3  1  0
 10  5  1  0
 20 15  1  0
 27 22  1  0
 30 26  1  0
  1 31  1  0
  1 32  1  0
  1 33  1  0
  2 34  1  6
  4 35  1  0
  8 36  1  0
  9 37  1  0
 10 38  1  0
 16 39  1  0
 17 40  1  0
 18 41  1  0
 19 42  1  0
 20 43  1  0
 21 44  1  0
 24 45  1  0
 28 46  1  0
 29 47  1  0
M  END
$$$$
