
     RDKit          3D

 62 66  0  0  0  0  0  0  0  0999 V2000
   -8.1438    1.6562    2.4222 C   0  0  0  0  0  0  0  0  0  0  0  0
   -7.0427    0.9824    1.6832 C   0  0  0  0  0  0  0  0  0  0  0  0
   -6.7220   -0.3030    1.9137 N   0  0  0  0  0  0  0  0  0  0  0  0
   -5.6446   -0.4535    1.1154 N   0  0  0  0  0  0  0  0  0  0  0  0
   -5.3495    0.7248    0.4580 C   0  0  0  0  0  0  0  0  0  0  0  0
   -6.2847    1.6144    0.7443 N   0  0  0  0  0  0  0  0  0  0  0  0
   -4.0876    1.0137   -0.4201 C   0  0  0  0  0  0  0  0  0  0  0  0
   -3.9793    2.0874   -1.2688 C   0  0  0  0  0  0  0  0  0  0  0  0
   -2.7509    1.9522   -1.8480 N   0  0  0  0  0  0  0  0  0  0  0  0
   -2.2626    2.7865   -2.9270 C   0  0  0  0  0  0  0  0  0  0  0  0
   -0.8378    3.2423   -2.7048 C   0  0  0  0  0  0  0  0  0  0  0  0
    0.0597    2.1786   -3.0502 O   0  0  0  0  0  0  0  0  0  0  0  0
    0.3412    1.3146   -2.0184 C   0  0  0  0  0  0  0  0  0  0  0  0
   -0.6057    0.7253   -1.1616 C   0  0  0  0  0  0  0  0  0  0  0  0
   -2.0554    0.9592   -1.1530 C   0  0  0  0  0  0  0  0  0  0  0  0
   -2.9197    0.2857   -0.3938 N   0  0  0  0  0  0  0  0  0  0  0  0
   -0.0938   -0.1626   -0.1896 C   0  0  0  0  0  0  0  0  0  0  0  0
    1.2687   -0.4405   -0.0753 C   0  0  0  0  0  0  0  0  0  0  0  0
    2.1862    0.1424   -0.9584 C   0  0  0  0  0  0  0  0  0  0  0  0
    1.7116    1.0216   -1.9389 C   0  0  0  0  0  0  0  0  0  0  0  0
    3.6048   -0.1692   -0.9140 C   0  0  0  0  0  0  0  0  0  0  0  0
    4.3957   -0.1685    0.2355 C   0  0  0  0  0  0  0  0  0  0  0  0
    5.6722   -0.5140   -0.1821 N   0  0  0  0  0  0  0  0  0  0  0  0
    5.7135   -0.8421   -1.5051 N   0  0  0  0  0  0  0  0  0  0  0  0
    4.4808   -0.5859   -1.9353 C   0  0  0  0  0  0  0  0  0  0  0  0
    6.8536   -0.8383    0.6651 C   0  0  0  0  0  0  0  0  0  0  0  0
    6.8428   -2.3714    0.8804 C   0  0  0  0  0  0  0  0  0  0  0  0
    6.7803   -0.1474    2.0517 C   0  0  0  0  0  0  0  0  0  0  0  0
    8.1870   -0.3977    0.0184 C   0  0  0  0  0  0  0  0  0  0  0  0
    8.3414    0.4372   -0.8736 O   0  0  0  0  0  0  0  0  0  0  0  0
    9.3309   -0.8681    0.6314 N   0  0  0  0  0  0  0  0  0  0  0  0
   -5.1484   -1.7847    0.7726 C   0  0  0  0  0  0  0  0  0  0  0  0
   -4.3662   -2.4387    1.9275 C   0  0  0  0  0  0  0  0  0  0  0  0
   -6.2928   -2.6838    0.2900 C   0  0  0  0  0  0  0  0  0  0  0  0
   -8.4769    1.0221    3.2781 H   0  0  0  0  0  0  0  0  0  0  0  0
   -8.9953    1.8336    1.7568 H   0  0  0  0  0  0  0  0  0  0  0  0
   -7.7801    2.6174    2.8110 H   0  0  0  0  0  0  0  0  0  0  0  0
   -4.6824    2.8620   -1.5437 H   0  0  0  0  0  0  0  0  0  0  0  0
   -2.3527    2.1761   -3.8421 H   0  0  0  0  0  0  0  0  0  0  0  0
   -2.9414    3.6553   -3.0128 H   0  0  0  0  0  0  0  0  0  0  0  0
   -0.6514    3.6270   -1.6945 H   0  0  0  0  0  0  0  0  0  0  0  0
   -0.6277    4.0620   -3.4049 H   0  0  0  0  0  0  0  0  0  0  0  0
   -0.7737   -0.6651    0.4933 H   0  0  0  0  0  0  0  0  0  0  0  0
    1.6312   -1.1358    0.6923 H   0  0  0  0  0  0  0  0  0  0  0  0
    2.4188    1.4951   -2.6152 H   0  0  0  0  0  0  0  0  0  0  0  0
    4.1475    0.0398    1.2712 H   0  0  0  0  0  0  0  0  0  0  0  0
    4.2543   -0.7354   -2.9821 H   0  0  0  0  0  0  0  0  0  0  0  0
    7.0597   -2.8959   -0.0634 H   0  0  0  0  0  0  0  0  0  0  0  0
    7.5990   -2.6716    1.6170 H   0  0  0  0  0  0  0  0  0  0  0  0
    5.8702   -2.7225    1.2725 H   0  0  0  0  0  0  0  0  0  0  0  0
    6.6372    0.9457    1.9790 H   0  0  0  0  0  0  0  0  0  0  0  0
    5.9754   -0.5391    2.6836 H   0  0  0  0  0  0  0  0  0  0  0  0
    7.6912   -0.2944    2.6396 H   0  0  0  0  0  0  0  0  0  0  0  0
   10.1824   -0.6586    0.1160 H   0  0  0  0  0  0  0  0  0  0  0  0
    9.3482   -1.6825    1.2283 H   0  0  0  0  0  0  0  0  0  0  0  0
   -4.4685   -1.6635   -0.0604 H   0  0  0  0  0  0  0  0  0  0  0  0
   -4.9866   -3.1655    2.4839 H   0  0  0  0  0  0  0  0  0  0  0  0
   -3.5331   -3.0087    1.4956 H   0  0  0  0  0  0  0  0  0  0  0  0
   -3.9431   -1.7015    2.6251 H   0  0  0  0  0  0  0  0  0  0  0  0
   -7.0310   -2.8906    1.0919 H   0  0  0  0  0  0  0  0  0  0  0  0
   -5.9127   -3.6470   -0.0662 H   0  0  0  0  0  0  0  0  0  0  0  0
   -6.8411   -2.2135   -0.5412 H   0  0  0  0  0  0  0  0  0  0  0  0
  1  2  1  0
  2  3  2  0
  3  4  1  0
  4  5  1  0
  5  6  2  0
  5  7  1  0
  7  8  2  0
  8  9  1  0
  9 10  1  0
 10 11  1  0
 11 12  1  0
 12 13  1  0
 13 14  2  0
 14 15  1  0
 15 16  2  0
 14 17  1  0
 17 18  2  0
 18 19  1  0
 19 20  2  0
 19 21  1  0
 21 22  2  0
 22 23  1  0
 23 24  1  0
 24 25  2  0
 23 26  1  0
 26 27  1  0
 26 28  1  0
 26 29  1  0
 29 30  2  0
 29 31  1  0
  4 32  1  0
 32 33  1  0
 32 34  1  0
  6  2  1  0
 16  7  1  0
 15  9  1  0
 20 13  1  0
 25 21  1  0
  1 35  1  0
  1 36  1  0
  1 37  1  0
  8 38  1  0
 10 39  1  0
 10 40  1  0
 11 41  1  0
 11 42  1  0
 17 43  1  0
 18 44  1  0
 20 45  1  0
 22 46  1  0
 25 47  1  0
 27 48  1  0
 27 49  1  0
 27 50  1  0
 28 51  1  0
 28 52  1  0
 28 53  1  0
 31 54  1  0
 31 55  1  0
 32 56  1  0
 33 57  1  0
 33 58  1  0
 33 59  1  0
 34 60  1  0
 34 61  1  0
 34 62  1  0
M  END
$$$$
