
     RDKit          3D

 30 32  0  0  0  0  0  0  0  0999 V2000
   -1.7319   -2.2387    0.1334 C   0  0  0  0  0  0  0  0  0  0  0  0
   -2.6228   -1.0059   -0.1142 C   0  0  0  0  0  0  0  0  0  0  0  0
   -2.0230    0.2888    0.4861 C   0  0  0  0  0  0  0  0  0  0  0  0
   -0.5379    0.3144    0.2631 C   0  0  0  0  0  0  0  0  0  0  0  0
    0.2409   -0.7401   -0.1676 C   0  0  0  0  0  0  0  0  0  0  0  0
   -0.3339   -2.0774   -0.4940 C   0  0  0  0  0  0  0  0  0  0  0  0
    1.5856   -0.2805   -0.2261 C   0  0  0  0  0  0  0  0  0  0  0  0
    1.5831    1.0498    0.2051 C   0  0  0  0  0  0  0  0  0  0  0  0
    0.2817    1.3803    0.5188 N   0  0  0  0  0  0  0  0  0  0  0  0
    2.7483    1.8226    0.2803 C   0  0  0  0  0  0  0  0  0  0  0  0
    3.9511    1.2184   -0.0989 C   0  0  0  0  0  0  0  0  0  0  0  0
    3.9778   -0.1053   -0.5311 C   0  0  0  0  0  0  0  0  0  0  0  0
    2.8092   -0.8696   -0.6003 C   0  0  0  0  0  0  0  0  0  0  0  0
    5.4788   -0.8169   -0.9897 Cl  0  0  0  0  0  0  0  0  0  0  0  0
   -2.6660    1.5451   -0.1013 C   0  0  0  0  0  0  0  0  0  0  0  0
   -3.1776    2.4196    0.5924 O   0  0  0  0  0  0  0  0  0  0  0  0
   -2.6140    1.6854   -1.4593 N   0  0  0  0  0  0  0  0  0  0  0  0
   -1.6329   -2.3945    1.2155 H   0  0  0  0  0  0  0  0  0  0  0  0
   -2.2135   -3.1338   -0.2760 H   0  0  0  0  0  0  0  0  0  0  0  0
   -3.6164   -1.1752    0.3185 H   0  0  0  0  0  0  0  0  0  0  0  0
   -2.7768   -0.9071   -1.1961 H   0  0  0  0  0  0  0  0  0  0  0  0
   -2.2079    0.2905    1.5683 H   0  0  0  0  0  0  0  0  0  0  0  0
    0.3226   -2.8773   -0.1345 H   0  0  0  0  0  0  0  0  0  0  0  0
   -0.4089   -2.1742   -1.5837 H   0  0  0  0  0  0  0  0  0  0  0  0
   -0.0139    2.2797    0.8784 H   0  0  0  0  0  0  0  0  0  0  0  0
    2.7265    2.8528    0.6214 H   0  0  0  0  0  0  0  0  0  0  0  0
    4.8722    1.7943   -0.0507 H   0  0  0  0  0  0  0  0  0  0  0  0
    2.8413   -1.9010   -0.9362 H   0  0  0  0  0  0  0  0  0  0  0  0
   -1.9125    1.1833   -1.9900 H   0  0  0  0  0  0  0  0  0  0  0  0
   -2.9295    2.5725   -1.8300 H   0  0  0  0  0  0  0  0  0  0  0  0
  1  2  1  0
  2  3  1  0
  3  4  1  0
  4  5  2  0
  5  6  1  0
  5  7  1  0
  7  8  2  0
  8  9  1  0
  8 10  1  0
 10 11  2  0
 11 12  1  0
 12 13  2  0
 12 14  1  0
  3 15  1  0
 15 16  2  0
 15 17  1  0
  6  1  1  0
  9  4  1  0
 13  7  1  0
  1 18  1  0
  1 19  1  0
  2 20  1  0
  2 21  1  0
  3 22  1  0
  6 23  1  0
  6 24  1  0
  9 25  1  0
 10 26  1  0
 11 27  1  0
 13 28  1  0
 17 29  1  0
 17 30  1  0
M  END
$$$$
