
     RDKit          3D

 15 14  0  0  0  0  0  0  0  0999 V2000
   -0.5708   -0.0361   -0.9039 C   0  0  0  0  0  0  0  0  0  0  0  0
    0.4793   -0.7611   -0.0822 C   0  0  0  0  0  0  0  0  0  0  0  0
    1.2908    0.2475    0.7376 C   0  0  0  0  0  0  0  0  0  0  0  0
    1.1005    0.5264    1.9157 O   0  0  0  0  0  0  0  0  0  0  0  0
    2.2528    0.8747    0.0366 O   0  0  0  0  0  0  0  0  0  0  0  0
    1.2834   -1.5570   -0.9549 O   0  0  0  0  0  0  0  0  0  0  0  0
   -1.5140    0.7338   -0.0324 C   0  0  0  0  0  0  0  0  0  0  0  0
   -1.7234    1.9367   -0.0849 O   0  0  0  0  0  0  0  0  0  0  0  0
   -2.1751   -0.0478    0.8428 O   0  0  0  0  0  0  0  0  0  0  0  0
   -0.0980    0.6602   -1.6097 H   0  0  0  0  0  0  0  0  0  0  0  0
   -1.1494   -0.7420   -1.5109 H   0  0  0  0  0  0  0  0  0  0  0  0
    0.0226   -1.4501    0.6428 H   0  0  0  0  0  0  0  0  0  0  0  0
    2.6873    1.4618    0.6910 H   0  0  0  0  0  0  0  0  0  0  0  0
    0.8500   -2.4304   -1.0317 H   0  0  0  0  0  0  0  0  0  0  0  0
   -2.7362    0.5834    1.3442 H   0  0  0  0  0  0  0  0  0  0  0  0
  1  2  1  0
  2  3  1  0
  3  4  2  0
  3  5  1  0
  2  6  1  0
  1  7  1  0
  7  8  2  0
  7  9  1  0
  1 10  1  0
  1 11  1  0
  2 12  1  0
  5 13  1  0
  6 14  1  0
  9 15  1  0
M  END
$$$$
