
     RDKit          3D

 52 55  0  0  0  0  0  0  0  0999 V2000
   -2.2454    2.2959    1.1689 C   0  0  0  0  0  0  0  0  0  0  0  0
   -2.1893    3.6458    1.4966 C   0  0  0  0  0  0  0  0  0  0  0  0
   -1.5654    4.5266    0.6327 C   0  0  0  0  0  0  0  0  0  0  0  0
   -1.0044    4.0740   -0.5591 C   0  0  0  0  0  0  0  0  0  0  0  0
   -1.0635    2.7249   -0.9026 C   0  0  0  0  0  0  0  0  0  0  0  0
   -1.6725    1.8019   -0.0296 C   0  0  0  0  0  0  0  0  0  0  0  0
   -1.8084    0.3550   -0.3569 C   0  0  0  0  0  0  0  0  0  0  0  0
   -0.8816   -0.3904   -1.0016 C   0  0  0  0  0  0  0  0  0  0  0  0
   -1.2183   -1.8138   -1.2963 C   0  0  0  0  0  0  0  0  0  0  0  0
   -0.5474   -2.5082   -2.0505 O   0  0  0  0  0  0  0  0  0  0  0  0
   -2.3746   -2.3878   -0.6019 C   0  0  0  0  0  0  0  0  0  0  0  0
   -2.6355   -3.7600   -0.5913 C   0  0  0  0  0  0  0  0  0  0  0  0
   -3.7222   -4.2722    0.1142 C   0  0  0  0  0  0  0  0  0  0  0  0
   -4.5525   -3.3939    0.7994 C   0  0  0  0  0  0  0  0  0  0  0  0
   -4.3226   -2.0190    0.7738 C   0  0  0  0  0  0  0  0  0  0  0  0
   -3.2217   -1.5183    0.0804 C   0  0  0  0  0  0  0  0  0  0  0  0
   -3.0176   -0.1673    0.1092 O   0  0  0  0  0  0  0  0  0  0  0  0
   -5.6154   -3.8358    1.5313 O   0  0  0  0  0  0  0  0  0  0  0  0
   -1.8400   -4.6689   -1.2324 O   0  0  0  0  0  0  0  0  0  0  0  0
    0.3408    0.0814   -1.4597 O   0  0  0  0  0  0  0  0  0  0  0  0
    1.4064   -0.3180   -0.5739 C   0  0  1  0  0  0  0  0  0  0  0  0
    2.5858   -0.8441   -1.4133 C   0  0  1  0  0  0  0  0  0  0  0  0
    3.7396   -1.1833   -0.4684 C   0  0  2  0  0  0  0  0  0  0  0  0
    4.1282    0.0000    0.4183 C   0  0  1  0  0  0  0  0  0  0  0  0
    2.8891    0.6172    1.0882 C   0  0  2  0  0  0  0  0  0  0  0  0
    1.8190    0.8302    0.1625 O   0  0  0  0  0  0  0  0  0  0  0  0
    3.2820    1.9849    1.6284 C   0  0  0  0  0  0  0  0  0  0  0  0
    3.1475    3.0639    1.0629 O   0  0  0  0  0  0  0  0  0  0  0  0
    3.7976    1.9469    2.8746 O   0  0  0  0  0  0  0  0  0  0  0  0
    5.0656   -0.4776    1.3924 O   0  0  0  0  0  0  0  0  0  0  0  0
    4.8919   -1.5902   -1.2211 O   0  0  0  0  0  0  0  0  0  0  0  0
    2.2651   -2.0479   -2.1118 O   0  0  0  0  0  0  0  0  0  0  0  0
   -0.4100    5.0077   -1.3650 O   0  0  0  0  0  0  0  0  0  0  0  0
   -1.5072    5.8525    0.9479 O   0  0  0  0  0  0  0  0  0  0  0  0
   -2.7428    1.6147    1.8587 H   0  0  0  0  0  0  0  0  0  0  0  0
   -2.6424    4.0095    2.4191 H   0  0  0  0  0  0  0  0  0  0  0  0
   -0.6414    2.3906   -1.8500 H   0  0  0  0  0  0  0  0  0  0  0  0
   -3.9109   -5.3420    0.1231 H   0  0  0  0  0  0  0  0  0  0  0  0
   -4.9845   -1.3500    1.3074 H   0  0  0  0  0  0  0  0  0  0  0  0
   -5.5594   -4.8075    1.6192 H   0  0  0  0  0  0  0  0  0  0  0  0
   -1.1701   -4.1744   -1.7535 H   0  0  0  0  0  0  0  0  0  0  0  0
    1.0750   -1.1030    0.1237 H   0  0  0  0  0  0  0  0  0  0  0  0
    2.9172   -0.0983   -2.1542 H   0  0  0  0  0  0  0  0  0  0  0  0
    3.4795   -2.0450    0.1594 H   0  0  0  0  0  0  0  0  0  0  0  0
    4.6677    0.7526   -0.1829 H   0  0  0  0  0  0  0  0  0  0  0  0
    2.5180    0.0126    1.9226 H   0  0  0  0  0  0  0  0  0  0  0  0
    3.9657    2.8878    3.0829 H   0  0  0  0  0  0  0  0  0  0  0  0
    5.7155   -1.0296    0.8973 H   0  0  0  0  0  0  0  0  0  0  0  0
    4.5707   -2.3232   -1.8003 H   0  0  0  0  0  0  0  0  0  0  0  0
    1.7784   -1.7844   -2.9326 H   0  0  0  0  0  0  0  0  0  0  0  0
    0.0294    4.5259   -2.0910 H   0  0  0  0  0  0  0  0  0  0  0  0
   -1.0086    6.2515    0.2048 H   0  0  0  0  0  0  0  0  0  0  0  0
  1  2  2  0
  2  3  1  0
  3  4  2  0
  4  5  1  0
  5  6  2  0
  6  7  1  0
  7  8  2  0
  8  9  1  0
  9 10  2  0
  9 11  1  0
 11 12  2  0
 12 13  1  0
 13 14  2  0
 14 15  1  0
 15 16  2  0
 16 17  1  0
 14 18  1  0
 12 19  1  0
  8 20  1  0
 20 21  1  0
 21 22  1  0
 22 23  1  0
 23 24  1  0
 24 25  1  0
 25 26  1  0
 25 27  1  0
 27 28  2  0
 27 29  1  0
 24 30  1  0
 23 31  1  0
 22 32  1  0
  4 33  1  0
  3 34  1  0
  6  1  1  0
 17  7  1  0
 16 11  1  0
 26 21  1  0
  1 35  1  0
  2 36  1  0
  5 37  1  0
 13 38  1  0
 15 39  1  0
 18 40  1  0
 19 41  1  0
 21 42  1  1
 22 43  1  6
 23 44  1  1
 24 45  1  6
 25 46  1  1
 29 47  1  0
 30 48  1  0
 31 49  1  0
 32 50  1  0
 33 51  1  0
 34 52  1  0
M  END
$$$$
