
     RDKit          3D

 30 32  0  0  0  0  0  0  0  0999 V2000
    2.6309    0.5672   -0.5198 C   0  0  0  0  0  0  0  0  0  0  0  0
    4.0263    0.6163   -0.4437 C   0  0  0  0  0  0  0  0  0  0  0  0
    4.7022   -0.3238    0.3250 C   0  0  0  0  0  0  0  0  0  0  0  0
    4.0073   -1.3059    1.0185 C   0  0  0  0  0  0  0  0  0  0  0  0
    2.6130   -1.3523    0.9434 C   0  0  0  0  0  0  0  0  0  0  0  0
    1.9064   -0.4184    0.1681 C   0  0  0  0  0  0  0  0  0  0  0  0
    0.4350   -0.4651    0.0789 C   0  0  0  0  0  0  0  0  0  0  0  0
   -0.1991   -1.6109   -0.2162 C   0  0  0  0  0  0  0  0  0  0  0  0
   -1.5546   -1.7952   -0.3412 O   0  0  0  0  0  0  0  0  0  0  0  0
   -2.3678   -0.7061   -0.1539 C   0  0  0  0  0  0  0  0  0  0  0  0
   -3.7426   -0.9164   -0.2821 C   0  0  0  0  0  0  0  0  0  0  0  0
   -4.6134    0.1552   -0.1041 C   0  0  0  0  0  0  0  0  0  0  0  0
   -4.1330    1.4259    0.1984 C   0  0  0  0  0  0  0  0  0  0  0  0
   -2.7611    1.6286    0.3251 C   0  0  0  0  0  0  0  0  0  0  0  0
   -1.8727    0.5615    0.1489 C   0  0  0  0  0  0  0  0  0  0  0  0
   -0.4167    0.7403    0.2740 C   0  0  0  0  0  0  0  0  0  0  0  0
    0.0380    1.8518    0.5307 O   0  0  0  0  0  0  0  0  0  0  0  0
   -2.3502    2.8999    0.6240 O   0  0  0  0  0  0  0  0  0  0  0  0
   -5.9629   -0.0016   -0.2196 O   0  0  0  0  0  0  0  0  0  0  0  0
    6.0610   -0.3137    0.4287 O   0  0  0  0  0  0  0  0  0  0  0  0
    2.1132    1.3133   -1.1202 H   0  0  0  0  0  0  0  0  0  0  0  0
    4.5588    1.3920   -0.9846 H   0  0  0  0  0  0  0  0  0  0  0  0
    4.5480   -2.0296    1.6219 H   0  0  0  0  0  0  0  0  0  0  0  0
    2.0877   -2.1192    1.5082 H   0  0  0  0  0  0  0  0  0  0  0  0
    0.3074   -2.5509   -0.4038 H   0  0  0  0  0  0  0  0  0  0  0  0
   -4.1128   -1.9089   -0.5186 H   0  0  0  0  0  0  0  0  0  0  0  0
   -4.8225    2.2542    0.3353 H   0  0  0  0  0  0  0  0  0  0  0  0
   -1.3683    2.8969    0.6900 H   0  0  0  0  0  0  0  0  0  0  0  0
   -6.1621   -0.9290   -0.4288 H   0  0  0  0  0  0  0  0  0  0  0  0
    6.4044    0.4439   -0.0730 H   0  0  0  0  0  0  0  0  0  0  0  0
  1  2  2  0
  2  3  1  0
  3  4  2  0
  4  5  1  0
  5  6  2  0
  6  7  1  0
  7  8  2  0
  8  9  1  0
  9 10  1  0
 10 11  2  0
 11 12  1  0
 12 13  2  0
 13 14  1  0
 14 15  2  0
 15 16  1  0
 16 17  2  0
 14 18  1  0
 12 19  1  0
  3 20  1  0
  6  1  1  0
 16  7  1  0
 15 10  1  0
  1 21  1  0
  2 22  1  0
  4 23  1  0
  5 24  1  0
  8 25  1  0
 11 26  1  0
 13 27  1  0
 18 28  1  0
 19 29  1  0
 20 30  1  0
M  END
$$$$
