
     RDKit          3D

 30 32  0  0  0  0  0  0  0  0999 V2000
    4.6079    2.4886   -0.7994 O   0  0  0  0  0  0  0  0  0  0  0  0
    3.8524    1.3972   -0.4874 C   0  0  0  0  0  0  0  0  0  0  0  0
    4.4411    0.1672   -0.2050 C   0  0  0  0  0  0  0  0  0  0  0  0
    3.6268   -0.9187    0.1083 C   0  0  0  0  0  0  0  0  0  0  0  0
    4.2565   -2.1043    0.3772 O   0  0  0  0  0  0  0  0  0  0  0  0
    2.2359   -0.7712    0.1377 C   0  0  0  0  0  0  0  0  0  0  0  0
    1.3482   -1.8931    0.4628 C   0  0  0  0  0  0  0  0  0  0  0  0
    1.7976   -3.0039    0.7230 O   0  0  0  0  0  0  0  0  0  0  0  0
   -0.0968   -1.6258    0.4643 C   0  0  0  0  0  0  0  0  0  0  0  0
   -0.5290   -0.3882    0.1814 C   0  0  0  0  0  0  0  0  0  0  0  0
    0.3031    0.6750   -0.1354 O   0  0  0  0  0  0  0  0  0  0  0  0
    1.6593    0.4646   -0.1466 C   0  0  0  0  0  0  0  0  0  0  0  0
    2.4693    1.5554   -0.4609 C   0  0  0  0  0  0  0  0  0  0  0  0
   -1.9670   -0.0571    0.1568 C   0  0  0  0  0  0  0  0  0  0  0  0
   -2.8418   -0.5051    1.1606 C   0  0  0  0  0  0  0  0  0  0  0  0
   -4.2005   -0.1739    1.1273 C   0  0  0  0  0  0  0  0  0  0  0  0
   -4.6874    0.6128    0.0900 C   0  0  0  0  0  0  0  0  0  0  0  0
   -6.0032    0.9599    0.0173 O   0  0  0  0  0  0  0  0  0  0  0  0
   -3.8401    1.0750   -0.9083 C   0  0  0  0  0  0  0  0  0  0  0  0
   -2.4832    0.7444   -0.8733 C   0  0  0  0  0  0  0  0  0  0  0  0
    5.5469    2.2367   -0.7801 H   0  0  0  0  0  0  0  0  0  0  0  0
    5.5183    0.0353   -0.2235 H   0  0  0  0  0  0  0  0  0  0  0  0
    3.5681   -2.7785    0.5788 H   0  0  0  0  0  0  0  0  0  0  0  0
   -0.7482   -2.4605    0.6877 H   0  0  0  0  0  0  0  0  0  0  0  0
    2.0286    2.5233   -0.6833 H   0  0  0  0  0  0  0  0  0  0  0  0
   -2.4735   -1.1064    1.9889 H   0  0  0  0  0  0  0  0  0  0  0  0
   -4.8540   -0.5328    1.9162 H   0  0  0  0  0  0  0  0  0  0  0  0
   -6.4700    0.5766    0.7777 H   0  0  0  0  0  0  0  0  0  0  0  0
   -4.2319    1.6924   -1.7118 H   0  0  0  0  0  0  0  0  0  0  0  0
   -1.8334    1.1150   -1.6635 H   0  0  0  0  0  0  0  0  0  0  0  0
  1  2  1  0
  2  3  2  0
  3  4  1  0
  4  5  1  0
  4  6  2  0
  6  7  1  0
  7  8  2  0
  7  9  1  0
  9 10  2  0
 10 11  1  0
 11 12  1  0
 12 13  2  0
 10 14  1  0
 14 15  2  0
 15 16  1  0
 16 17  2  0
 17 18  1  0
 17 19  1  0
 19 20  2  0
 13  2  1  0
 20 14  1  0
 12  6  1  0
  1 21  1  0
  3 22  1  0
  5 23  1  0
  9 24  1  0
 13 25  1  0
 15 26  1  0
 16 27  1  0
 18 28  1  0
 19 29  1  0
 20 30  1  0
M  END
$$$$
