
     RDKit          3D

 78 81  0  0  0  0  0  0  0  0999 V2000
    5.2959    0.3449   -2.4040 C   0  0  0  0  0  0  0  0  0  0  0  0
    6.2626   -0.4684   -1.5429 C   0  0  0  0  0  0  0  0  0  0  0  0
    6.1046   -0.2771   -0.0072 C   0  0  2  0  0  0  0  0  0  0  0  0
    4.7319   -0.8076    0.4149 C   0  0  0  0  0  0  0  0  0  0  0  0
    3.6979   -0.1247    0.9388 C   0  0  0  0  0  0  0  0  0  0  0  0
    2.3526   -0.7441    1.2794 C   0  0  1  0  0  0  0  0  0  0  0  0
    2.1354   -0.6149    2.7872 C   0  0  0  0  0  0  0  0  0  0  0  0
    1.2267   -0.0801    0.4438 C   0  0  1  0  0  0  0  0  0  0  0  0
    1.5062   -0.1949   -1.0900 C   0  0  0  0  0  0  0  0  0  0  0  0
    0.1484   -0.2804   -1.7972 C   0  0  0  0  0  0  0  0  0  0  0  0
   -0.8525    0.0365   -0.6963 C   0  0  2  0  0  0  0  0  0  0  0  0
   -0.2407   -0.5959    0.5782 C   0  0  2  0  0  0  0  0  0  0  0  0
   -1.0446   -0.0317    1.7676 C   0  0  0  0  0  0  0  0  0  0  0  0
   -2.5659   -0.2916    1.6239 C   0  0  0  0  0  0  0  0  0  0  0  0
   -3.1736    0.1735    0.2637 C   0  0  1  0  0  0  0  0  0  0  0  0
   -2.3215   -0.3425   -0.9332 C   0  0  1  0  0  0  0  0  0  0  0  0
   -2.8325    0.2604   -2.2480 C   0  0  0  0  0  0  0  0  0  0  0  0
   -4.3127    0.1385   -2.3971 C   0  0  0  0  0  0  0  0  0  0  0  0
   -5.1589   -0.0672   -1.3739 C   0  0  0  0  0  0  0  0  0  0  0  0
   -4.7146   -0.1537    0.0926 C   0  0  2  0  0  0  0  0  0  0  0  0
   -5.5472    0.8660    0.9423 C   0  0  0  0  0  0  0  0  0  0  0  0
   -6.6103    1.6482    0.1456 C   0  0  0  0  0  0  0  0  0  0  0  0
   -7.4823    0.7279   -0.7080 C   0  0  1  0  0  0  0  0  0  0  0  0
   -6.6498   -0.1688   -1.6392 C   0  0  0  0  0  0  0  0  0  0  0  0
   -8.2650   -0.1010    0.1536 O   0  0  0  0  0  0  0  0  0  0  0  0
   -5.0324   -1.5854    0.5946 C   0  0  0  0  0  0  0  0  0  0  0  0
   -0.2835   -2.1488    0.5829 C   0  0  0  0  0  0  0  0  0  0  0  0
    6.4547    1.1600    0.4895 C   0  0  0  0  0  0  0  0  0  0  0  0
    7.7516    1.7217   -0.1151 C   0  0  0  0  0  0  0  0  0  0  0  0
    6.5786    1.2225    2.0245 C   0  0  0  0  0  0  0  0  0  0  0  0
    5.3207    1.4095   -2.1479 H   0  0  0  0  0  0  0  0  0  0  0  0
    5.5643    0.2385   -3.4631 H   0  0  0  0  0  0  0  0  0  0  0  0
    4.2653   -0.0178   -2.2849 H   0  0  0  0  0  0  0  0  0  0  0  0
    6.1299   -1.5347   -1.7882 H   0  0  0  0  0  0  0  0  0  0  0  0
    7.2915   -0.2231   -1.8488 H   0  0  0  0  0  0  0  0  0  0  0  0
    6.8375   -0.9593    0.4529 H   0  0  0  0  0  0  0  0  0  0  0  0
    4.6033   -1.8781    0.2396 H   0  0  0  0  0  0  0  0  0  0  0  0
    3.7864    0.9469    1.1216 H   0  0  0  0  0  0  0  0  0  0  0  0
    2.3953   -1.8152    1.0464 H   0  0  0  0  0  0  0  0  0  0  0  0
    1.8460    0.4060    3.0749 H   0  0  0  0  0  0  0  0  0  0  0  0
    3.0384   -0.8739    3.3585 H   0  0  0  0  0  0  0  0  0  0  0  0
    1.3491   -1.2969    3.1273 H   0  0  0  0  0  0  0  0  0  0  0  0
    1.2254    0.9995    0.6815 H   0  0  0  0  0  0  0  0  0  0  0  0
    2.0639    0.6884   -1.4349 H   0  0  0  0  0  0  0  0  0  0  0  0
    2.1041   -1.0814   -1.3413 H   0  0  0  0  0  0  0  0  0  0  0  0
    0.0887    0.4334   -2.6231 H   0  0  0  0  0  0  0  0  0  0  0  0
   -0.0037   -1.2830   -2.2109 H   0  0  0  0  0  0  0  0  0  0  0  0
   -0.8277    1.1361   -0.5791 H   0  0  0  0  0  0  0  0  0  0  0  0
   -0.7058   -0.4714    2.7127 H   0  0  0  0  0  0  0  0  0  0  0  0
   -0.8811    1.0547    1.8576 H   0  0  0  0  0  0  0  0  0  0  0  0
   -2.7308   -1.3660    1.7676 H   0  0  0  0  0  0  0  0  0  0  0  0
   -3.0862    0.2173    2.4481 H   0  0  0  0  0  0  0  0  0  0  0  0
   -3.0756    1.2711    0.2436 H   0  0  0  0  0  0  0  0  0  0  0  0
   -2.4181   -1.4321   -1.0107 H   0  0  0  0  0  0  0  0  0  0  0  0
   -2.3525   -0.2468   -3.0958 H   0  0  0  0  0  0  0  0  0  0  0  0
   -2.5699    1.3240   -2.3209 H   0  0  0  0  0  0  0  0  0  0  0  0
   -4.6889    0.2222   -3.4161 H   0  0  0  0  0  0  0  0  0  0  0  0
   -4.8978    1.6098    1.4210 H   0  0  0  0  0  0  0  0  0  0  0  0
   -6.0456    0.3512    1.7729 H   0  0  0  0  0  0  0  0  0  0  0  0
   -6.1102    2.3876   -0.4949 H   0  0  0  0  0  0  0  0  0  0  0  0
   -7.2364    2.2095    0.8548 H   0  0  0  0  0  0  0  0  0  0  0  0
   -8.1832    1.3205   -1.3069 H   0  0  0  0  0  0  0  0  0  0  0  0
   -6.9715   -1.2181   -1.5590 H   0  0  0  0  0  0  0  0  0  0  0  0
   -6.8723    0.1224   -2.6773 H   0  0  0  0  0  0  0  0  0  0  0  0
   -8.8997    0.4836    0.6091 H   0  0  0  0  0  0  0  0  0  0  0  0
   -6.0827   -1.8632    0.4330 H   0  0  0  0  0  0  0  0  0  0  0  0
   -4.8743   -1.6796    1.6779 H   0  0  0  0  0  0  0  0  0  0  0  0
   -4.4140   -2.3419    0.0952 H   0  0  0  0  0  0  0  0  0  0  0  0
   -1.2986   -2.5407    0.4692 H   0  0  0  0  0  0  0  0  0  0  0  0
    0.1007   -2.5486    1.5310 H   0  0  0  0  0  0  0  0  0  0  0  0
    0.3194   -2.5875   -0.2234 H   0  0  0  0  0  0  0  0  0  0  0  0
    5.6487    1.8444    0.1957 H   0  0  0  0  0  0  0  0  0  0  0  0
    8.0307    2.6744    0.3587 H   0  0  0  0  0  0  0  0  0  0  0  0
    8.5856    1.0219    0.0220 H   0  0  0  0  0  0  0  0  0  0  0  0
    7.6435    1.9190   -1.1895 H   0  0  0  0  0  0  0  0  0  0  0  0
    5.9646    0.4663    2.5361 H   0  0  0  0  0  0  0  0  0  0  0  0
    7.6188    1.0701    2.3551 H   0  0  0  0  0  0  0  0  0  0  0  0
    6.2457    2.2095    2.3816 H   0  0  0  0  0  0  0  0  0  0  0  0
  1  2  1  0
  2  3  1  0
  3  4  1  0
  4  5  2  0
  5  6  1  0
  6  7  1  0
  6  8  1  0
  8  9  1  0
  9 10  1  0
 10 11  1  0
 11 12  1  0
 12 13  1  0
 13 14  1  0
 14 15  1  0
 15 16  1  0
 16 17  1  0
 17 18  1  0
 18 19  2  0
 19 20  1  0
 20 21  1  0
 21 22  1  0
 22 23  1  0
 23 24  1  0
 23 25  1  0
 20 26  1  1
 12 27  1  6
  3 28  1  0
 28 29  1  0
 28 30  1  0
 12  8  1  0
 16 11  1  0
 20 15  1  0
 24 19  1  0
  1 31  1  0
  1 32  1  0
  1 33  1  0
  2 34  1  0
  2 35  1  0
  3 36  1  1
  4 37  1  0
  5 38  1  0
  6 39  1  1
  7 40  1  0
  7 41  1  0
  7 42  1  0
  8 43  1  1
  9 44  1  0
  9 45  1  0
 10 46  1  0
 10 47  1  0
 11 48  1  1
 13 49  1  0
 13 50  1  0
 14 51  1  0
 14 52  1  0
 15 53  1  1
 16 54  1  6
 17 55  1  0
 17 56  1  0
 18 57  1  0
 21 58  1  0
 21 59  1  0
 22 60  1  0
 22 61  1  0
 23 62  1  6
 24 63  1  0
 24 64  1  0
 25 65  1  0
 26 66  1  0
 26 67  1  0
 26 68  1  0
 27 69  1  0
 27 70  1  0
 27 71  1  0
 28 72  1  0
 29 73  1  0
 29 74  1  0
 29 75  1  0
 30 76  1  0
 30 77  1  0
 30 78  1  0
M  END
$$$$
