
     RDKit          3D

 50 49  0  0  0  0  0  0  0  0999 V2000
    8.8024    0.7915   -0.0851 C   0  0  0  0  0  0  0  0  0  0  0  0
    7.8513   -0.3078   -0.5388 C   0  0  0  0  0  0  0  0  0  0  0  0
    6.9514    0.1726   -1.6396 C   0  0  0  0  0  0  0  0  0  0  0  0
    5.6399    0.4486   -1.5523 C   0  0  0  0  0  0  0  0  0  0  0  0
    4.7687    0.3904   -0.3285 C   0  0  0  0  0  0  0  0  0  0  0  0
    3.6917   -0.6482   -0.4862 C   0  0  0  0  0  0  0  0  0  0  0  0
    2.3845   -0.5094   -0.1959 C   0  0  0  0  0  0  0  0  0  0  0  0
    1.7074    0.6904    0.4032 C   0  0  0  0  0  0  0  0  0  0  0  0
    0.8333    1.3740   -0.6069 C   0  0  0  0  0  0  0  0  0  0  0  0
   -0.4542    1.7233   -0.4648 C   0  0  0  0  0  0  0  0  0  0  0  0
   -1.3116    1.5319    0.7562 C   0  0  0  0  0  0  0  0  0  0  0  0
   -2.2709    0.3525    0.5686 C   0  0  0  0  0  0  0  0  0  0  0  0
   -3.1223    0.1343    1.8198 C   0  0  0  0  0  0  0  0  0  0  0  0
   -4.0376   -1.0904    1.7480 C   0  0  0  0  0  0  0  0  0  0  0  0
   -5.4023   -0.8546    1.0877 C   0  0  0  0  0  0  0  0  0  0  0  0
   -5.3672   -0.8341   -0.4442 C   0  0  0  0  0  0  0  0  0  0  0  0
   -6.7660   -0.8341   -1.0577 C   0  0  0  0  0  0  0  0  0  0  0  0
   -7.4830    0.4558   -0.7767 C   0  0  0  0  0  0  0  0  0  0  0  0
   -7.2410    1.5433   -1.2694 O   0  0  0  0  0  0  0  0  0  0  0  0
   -8.4500    0.3208    0.1507 O   0  0  0  0  0  0  0  0  0  0  0  0
    9.3694    0.4647    0.7983 H   0  0  0  0  0  0  0  0  0  0  0  0
    8.2593    1.7073    0.1862 H   0  0  0  0  0  0  0  0  0  0  0  0
    9.5222    1.0415   -0.8764 H   0  0  0  0  0  0  0  0  0  0  0  0
    7.2871   -0.6710    0.3248 H   0  0  0  0  0  0  0  0  0  0  0  0
    8.4327   -1.1627   -0.9022 H   0  0  0  0  0  0  0  0  0  0  0  0
    7.4292    0.2897   -2.6102 H   0  0  0  0  0  0  0  0  0  0  0  0
    5.1323    0.7828   -2.4571 H   0  0  0  0  0  0  0  0  0  0  0  0
    5.3427    0.1550    0.5715 H   0  0  0  0  0  0  0  0  0  0  0  0
    4.3454    1.3878   -0.1797 H   0  0  0  0  0  0  0  0  0  0  0  0
    4.0221   -1.6116   -0.8724 H   0  0  0  0  0  0  0  0  0  0  0  0
    1.7309   -1.3651   -0.3783 H   0  0  0  0  0  0  0  0  0  0  0  0
    2.4309    1.4160    0.7875 H   0  0  0  0  0  0  0  0  0  0  0  0
    1.1346    0.3414    1.2692 H   0  0  0  0  0  0  0  0  0  0  0  0
    1.3144    1.6102   -1.5576 H   0  0  0  0  0  0  0  0  0  0  0  0
   -0.9496    2.2088   -1.3078 H   0  0  0  0  0  0  0  0  0  0  0  0
   -0.7007    1.3874    1.6554 H   0  0  0  0  0  0  0  0  0  0  0  0
   -1.8810    2.4560    0.9256 H   0  0  0  0  0  0  0  0  0  0  0  0
   -1.7023   -0.5610    0.3506 H   0  0  0  0  0  0  0  0  0  0  0  0
   -2.9043    0.5511   -0.2991 H   0  0  0  0  0  0  0  0  0  0  0  0
   -2.4381   -0.0175    2.6674 H   0  0  0  0  0  0  0  0  0  0  0  0
   -3.7053    1.0346    2.0537 H   0  0  0  0  0  0  0  0  0  0  0  0
   -3.5236   -1.9385    1.2760 H   0  0  0  0  0  0  0  0  0  0  0  0
   -4.2457   -1.3957    2.7851 H   0  0  0  0  0  0  0  0  0  0  0  0
   -6.0717   -1.6637    1.4051 H   0  0  0  0  0  0  0  0  0  0  0  0
   -5.8416    0.0738    1.4714 H   0  0  0  0  0  0  0  0  0  0  0  0
   -4.8325    0.0538   -0.7961 H   0  0  0  0  0  0  0  0  0  0  0  0
   -4.8253   -1.7136   -0.8104 H   0  0  0  0  0  0  0  0  0  0  0  0
   -7.3606   -1.6811   -0.6931 H   0  0  0  0  0  0  0  0  0  0  0  0
   -6.7074   -0.9417   -2.1479 H   0  0  0  0  0  0  0  0  0  0  0  0
   -8.7879    1.2357    0.2724 H   0  0  0  0  0  0  0  0  0  0  0  0
  1  2  1  0
  2  3  1  0
  3  4  2  0
  4  5  1  0
  5  6  1  0
  6  7  2  0
  7  8  1  0
  8  9  1  0
  9 10  2  0
 10 11  1  0
 11 12  1  0
 12 13  1  0
 13 14  1  0
 14 15  1  0
 15 16  1  0
 16 17  1  0
 17 18  1  0
 18 19  2  0
 18 20  1  0
  1 21  1  0
  1 22  1  0
  1 23  1  0
  2 24  1  0
  2 25  1  0
  3 26  1  0
  4 27  1  0
  5 28  1  0
  5 29  1  0
  6 30  1  0
  7 31  1  0
  8 32  1  0
  8 33  1  0
  9 34  1  0
 10 35  1  0
 11 36  1  0
 11 37  1  0
 12 38  1  0
 12 39  1  0
 13 40  1  0
 13 41  1  0
 14 42  1  0
 14 43  1  0
 15 44  1  0
 15 45  1  0
 16 46  1  0
 16 47  1  0
 17 48  1  0
 17 49  1  0
 20 50  1  0
M  END
$$$$
