
     RDKit          3D

 52 51  0  0  0  0  0  0  0  0999 V2000
   -7.9257    0.0938    0.1980 C   0  0  0  0  0  0  0  0  0  0  0  0
   -6.7693    0.9126    0.7513 C   0  0  0  0  0  0  0  0  0  0  0  0
   -5.5216    0.0816    1.0644 C   0  0  0  0  0  0  0  0  0  0  0  0
   -4.8921   -0.5697   -0.1716 C   0  0  0  0  0  0  0  0  0  0  0  0
   -3.6587   -1.4225    0.1538 C   0  0  0  0  0  0  0  0  0  0  0  0
   -2.4691   -0.6174    0.5926 C   0  0  0  0  0  0  0  0  0  0  0  0
   -1.3374   -0.3826   -0.0908 C   0  0  0  0  0  0  0  0  0  0  0  0
   -0.9818   -0.8338   -1.4805 C   0  0  0  0  0  0  0  0  0  0  0  0
    0.2832   -1.6436   -1.4726 C   0  0  0  0  0  0  0  0  0  0  0  0
    1.4745   -1.3169   -2.0036 C   0  0  0  0  0  0  0  0  0  0  0  0
    1.8332   -0.0583   -2.7432 C   0  0  0  0  0  0  0  0  0  0  0  0
    2.8287    0.8183   -1.9712 C   0  0  0  0  0  0  0  0  0  0  0  0
    2.2666    1.3363   -0.6423 C   0  0  0  0  0  0  0  0  0  0  0  0
    3.2007    2.3014    0.0925 C   0  0  0  0  0  0  0  0  0  0  0  0
    4.6122    1.7796    0.3749 C   0  0  0  0  0  0  0  0  0  0  0  0
    4.6447    0.4712    1.1665 C   0  0  0  0  0  0  0  0  0  0  0  0
    6.0795    0.0220    1.4123 C   0  0  0  0  0  0  0  0  0  0  0  0
    6.1102   -1.2497    2.2113 C   0  0  0  0  0  0  0  0  0  0  0  0
    5.9255   -1.3547    3.4119 O   0  0  0  0  0  0  0  0  0  0  0  0
    6.3682   -2.3335    1.4548 O   0  0  0  0  0  0  0  0  0  0  0  0
   -8.8286    0.7112    0.1342 H   0  0  0  0  0  0  0  0  0  0  0  0
   -8.1488   -0.7632    0.8435 H   0  0  0  0  0  0  0  0  0  0  0  0
   -7.7077   -0.2784   -0.8072 H   0  0  0  0  0  0  0  0  0  0  0  0
   -6.5177    1.7128    0.0447 H   0  0  0  0  0  0  0  0  0  0  0  0
   -7.1001    1.4005    1.6760 H   0  0  0  0  0  0  0  0  0  0  0  0
   -4.7917    0.7412    1.5477 H   0  0  0  0  0  0  0  0  0  0  0  0
   -5.7770   -0.6933    1.7988 H   0  0  0  0  0  0  0  0  0  0  0  0
   -5.6279   -1.2244   -0.6523 H   0  0  0  0  0  0  0  0  0  0  0  0
   -4.6305    0.2046   -0.9034 H   0  0  0  0  0  0  0  0  0  0  0  0
   -3.4179   -2.0307   -0.7244 H   0  0  0  0  0  0  0  0  0  0  0  0
   -3.9041   -2.1415    0.9477 H   0  0  0  0  0  0  0  0  0  0  0  0
   -2.5411   -0.1949    1.5972 H   0  0  0  0  0  0  0  0  0  0  0  0
   -0.5762    0.2252    0.3986 H   0  0  0  0  0  0  0  0  0  0  0  0
   -1.7703   -1.4447   -1.9302 H   0  0  0  0  0  0  0  0  0  0  0  0
   -0.8939    0.0553   -2.1111 H   0  0  0  0  0  0  0  0  0  0  0  0
    0.2078   -2.6060   -0.9639 H   0  0  0  0  0  0  0  0  0  0  0  0
    2.2911   -2.0309   -1.8891 H   0  0  0  0  0  0  0  0  0  0  0  0
    2.2920   -0.3483   -3.6981 H   0  0  0  0  0  0  0  0  0  0  0  0
    0.9537    0.5361   -3.0020 H   0  0  0  0  0  0  0  0  0  0  0  0
    3.1033    1.6731   -2.6020 H   0  0  0  0  0  0  0  0  0  0  0  0
    3.7502    0.2474   -1.7978 H   0  0  0  0  0  0  0  0  0  0  0  0
    1.3182    1.8574   -0.8325 H   0  0  0  0  0  0  0  0  0  0  0  0
    2.0273    0.4986    0.0206 H   0  0  0  0  0  0  0  0  0  0  0  0
    2.7285    2.5803    1.0431 H   0  0  0  0  0  0  0  0  0  0  0  0
    3.2850    3.2246   -0.4918 H   0  0  0  0  0  0  0  0  0  0  0  0
    5.1545    2.5528    0.9322 H   0  0  0  0  0  0  0  0  0  0  0  0
    5.1510    1.6510   -0.5719 H   0  0  0  0  0  0  0  0  0  0  0  0
    4.1129   -0.3225    0.6320 H   0  0  0  0  0  0  0  0  0  0  0  0
    4.1263    0.6061    2.1248 H   0  0  0  0  0  0  0  0  0  0  0  0
    6.6031   -0.1347    0.4595 H   0  0  0  0  0  0  0  0  0  0  0  0
    6.6512    0.7762    1.9622 H   0  0  0  0  0  0  0  0  0  0  0  0
    6.4057   -3.0750    2.1017 H   0  0  0  0  0  0  0  0  0  0  0  0
  1  2  1  0
  2  3  1  0
  3  4  1  0
  4  5  1  0
  5  6  1  0
  6  7  2  0
  7  8  1  0
  8  9  1  0
  9 10  2  0
 10 11  1  0
 11 12  1  0
 12 13  1  0
 13 14  1  0
 14 15  1  0
 15 16  1  0
 16 17  1  0
 17 18  1  0
 18 19  2  0
 18 20  1  0
  1 21  1  0
  1 22  1  0
  1 23  1  0
  2 24  1  0
  2 25  1  0
  3 26  1  0
  3 27  1  0
  4 28  1  0
  4 29  1  0
  5 30  1  0
  5 31  1  0
  6 32  1  0
  7 33  1  0
  8 34  1  0
  8 35  1  0
  9 36  1  0
 10 37  1  0
 11 38  1  0
 11 39  1  0
 12 40  1  0
 12 41  1  0
 13 42  1  0
 13 43  1  0
 14 44  1  0
 14 45  1  0
 15 46  1  0
 15 47  1  0
 16 48  1  0
 16 49  1  0
 17 50  1  0
 17 51  1  0
 20 52  1  0
M  END
$$$$
