
     RDKit          3D

 31 33  0  0  0  0  0  0  0  0999 V2000
   -4.4809    2.7691    0.9322 O   0  0  0  0  0  0  0  0  0  0  0  0
   -3.7582    1.6983    0.4794 C   0  0  0  0  0  0  0  0  0  0  0  0
   -4.4536    0.6669   -0.1275 C   0  0  0  0  0  0  0  0  0  0  0  0
   -3.7377   -0.4284   -0.5680 C   0  0  0  0  0  0  0  0  0  0  0  0
   -4.4513   -1.4231   -1.1809 O   0  0  0  0  0  0  0  0  0  0  0  0
   -2.3478   -0.4965   -0.4068 C   0  0  0  0  0  0  0  0  0  0  0  0
   -1.5733   -1.6536   -0.8460 C   0  0  0  0  0  0  0  0  0  0  0  0
   -2.1052   -2.6488   -1.3323 O   0  0  0  0  0  0  0  0  0  0  0  0
   -0.0934   -1.6267   -0.6487 C   0  0  0  0  0  0  0  0  0  0  0  0
    0.5880   -2.7543   -1.0556 O   0  0  0  0  0  0  0  0  0  0  0  0
    0.4616   -0.5246   -0.0941 C   0  0  0  0  0  0  0  0  0  0  0  0
   -0.3140    0.5651    0.3342 O   0  0  0  0  0  0  0  0  0  0  0  0
   -1.6676    0.5581    0.1695 C   0  0  0  0  0  0  0  0  0  0  0  0
   -2.3792    1.6673    0.6161 C   0  0  0  0  0  0  0  0  0  0  0  0
    1.9381   -0.2659    0.0889 C   0  0  0  0  0  0  0  0  0  0  0  0
    2.9505   -1.1397   -0.3477 C   0  0  0  0  0  0  0  0  0  0  0  0
    4.3114   -0.8272   -0.1831 C   0  0  0  0  0  0  0  0  0  0  0  0
    4.6867    0.3599    0.4405 C   0  0  0  0  0  0  0  0  0  0  0  0
    6.0123    0.6441    0.5644 O   0  0  0  0  0  0  0  0  0  0  0  0
    3.7215    1.2371    0.8950 C   0  0  0  0  0  0  0  0  0  0  0  0
    2.3565    0.9203    0.7221 C   0  0  0  0  0  0  0  0  0  0  0  0
   -3.8918    3.4563    1.2992 H   0  0  0  0  0  0  0  0  0  0  0  0
   -5.5396    0.7068   -0.2450 H   0  0  0  0  0  0  0  0  0  0  0  0
   -3.8568   -2.2135   -1.2879 H   0  0  0  0  0  0  0  0  0  0  0  0
   -0.0405   -3.2417   -1.6404 H   0  0  0  0  0  0  0  0  0  0  0  0
   -1.8550    2.4985    1.0769 H   0  0  0  0  0  0  0  0  0  0  0  0
    2.7250   -2.0812   -0.8479 H   0  0  0  0  0  0  0  0  0  0  0  0
    5.0661   -1.5173   -0.5553 H   0  0  0  0  0  0  0  0  0  0  0  0
    6.1192    1.2698    1.3111 H   0  0  0  0  0  0  0  0  0  0  0  0
    3.9856    2.1863    1.3562 H   0  0  0  0  0  0  0  0  0  0  0  0
    1.6234    1.6388    1.0811 H   0  0  0  0  0  0  0  0  0  0  0  0
  1  2  1  0
  2  3  2  0
  3  4  1  0
  4  5  1  0
  4  6  2  0
  6  7  1  0
  7  8  2  0
  7  9  1  0
  9 10  1  0
  9 11  2  0
 11 12  1  0
 12 13  1  0
 13 14  2  0
 11 15  1  0
 15 16  2  0
 16 17  1  0
 17 18  2  0
 18 19  1  0
 18 20  1  0
 20 21  2  0
 14  2  1  0
 21 15  1  0
 13  6  1  0
  1 22  1  0
  3 23  1  0
  5 24  1  0
 10 25  1  0
 14 26  1  0
 16 27  1  0
 17 28  1  0
 19 29  1  0
 20 30  1  0
 21 31  1  0
M  END
$$$$
