
     RDKit          3D

 33 35  0  0  0  0  0  0  0  0999 V2000
    6.3209   -0.0414   -0.0339 C   0  0  0  0  0  0  0  0  0  0  0  0
    5.3422    0.8860   -0.4855 O   0  0  0  0  0  0  0  0  0  0  0  0
    4.0342    0.4996   -0.3933 C   0  0  0  0  0  0  0  0  0  0  0  0
    3.5712   -0.7288    0.0752 C   0  0  0  0  0  0  0  0  0  0  0  0
    2.1960   -0.9952    0.1143 C   0  0  0  0  0  0  0  0  0  0  0  0
    1.2632   -0.0399   -0.3163 C   0  0  0  0  0  0  0  0  0  0  0  0
    1.7381    1.1927   -0.7785 C   0  0  0  0  0  0  0  0  0  0  0  0
    3.1108    1.4562   -0.8177 C   0  0  0  0  0  0  0  0  0  0  0  0
   -0.1829   -0.3214   -0.2832 C   0  0  0  0  0  0  0  0  0  0  0  0
   -0.6783   -1.4359   -0.8438 C   0  0  0  0  0  0  0  0  0  0  0  0
   -1.9973   -1.8164   -0.8956 O   0  0  0  0  0  0  0  0  0  0  0  0
   -2.9257   -0.9819   -0.3276 C   0  0  0  0  0  0  0  0  0  0  0  0
   -4.2602   -1.3832   -0.3873 C   0  0  0  0  0  0  0  0  0  0  0  0
   -5.2452   -0.5746    0.1722 C   0  0  0  0  0  0  0  0  0  0  0  0
   -4.9195    0.6290    0.7909 C   0  0  0  0  0  0  0  0  0  0  0  0
   -3.5844    1.0239    0.8472 C   0  0  0  0  0  0  0  0  0  0  0  0
   -2.5831    0.2203    0.2881 C   0  0  0  0  0  0  0  0  0  0  0  0
   -1.1649    0.6121    0.3325 C   0  0  0  0  0  0  0  0  0  0  0  0
   -0.8463    1.6705    0.8676 O   0  0  0  0  0  0  0  0  0  0  0  0
   -3.3246    2.2163    1.4687 O   0  0  0  0  0  0  0  0  0  0  0  0
   -6.5371   -1.0033    0.0925 O   0  0  0  0  0  0  0  0  0  0  0  0
    6.1937   -0.2631    1.0309 H   0  0  0  0  0  0  0  0  0  0  0  0
    6.3028   -0.9572   -0.6340 H   0  0  0  0  0  0  0  0  0  0  0  0
    7.3042    0.4211   -0.1624 H   0  0  0  0  0  0  0  0  0  0  0  0
    4.2498   -1.5011    0.4214 H   0  0  0  0  0  0  0  0  0  0  0  0
    1.8642   -1.9579    0.4981 H   0  0  0  0  0  0  0  0  0  0  0  0
    1.0473    1.9653   -1.1100 H   0  0  0  0  0  0  0  0  0  0  0  0
    3.4614    2.4204   -1.1784 H   0  0  0  0  0  0  0  0  0  0  0  0
   -0.0719   -2.1824   -1.3439 H   0  0  0  0  0  0  0  0  0  0  0  0
   -4.5335   -2.3192   -0.8665 H   0  0  0  0  0  0  0  0  0  0  0  0
   -5.6804    1.2662    1.2303 H   0  0  0  0  0  0  0  0  0  0  0  0
   -2.3519    2.3690    1.4409 H   0  0  0  0  0  0  0  0  0  0  0  0
   -7.1127   -0.3458    0.5189 H   0  0  0  0  0  0  0  0  0  0  0  0
  1  2  1  0
  2  3  1  0
  3  4  2  0
  4  5  1  0
  5  6  2  0
  6  7  1  0
  7  8  2  0
  6  9  1  0
  9 10  2  0
 10 11  1  0
 11 12  1  0
 12 13  2  0
 13 14  1  0
 14 15  2  0
 15 16  1  0
 16 17  2  0
 17 18  1  0
 18 19  2  0
 16 20  1  0
 14 21  1  0
  8  3  1  0
 18  9  1  0
 17 12  1  0
  1 22  1  0
  1 23  1  0
  1 24  1  0
  4 25  1  0
  5 26  1  0
  7 27  1  0
  8 28  1  0
 10 29  1  0
 13 30  1  0
 15 31  1  0
 20 32  1  0
 21 33  1  0
M  END
$$$$
