
     RDKit          3D

 52 55  0  0  0  0  0  0  0  0999 V2000
    3.5317   -2.9165   -0.2589 C   0  0  0  0  0  0  0  0  0  0  0  0
    3.0904   -1.4785    0.0082 C   0  0  1  0  0  0  0  0  0  0  0  0
    4.2525   -0.4822   -0.2313 C   0  0  1  0  0  0  0  0  0  0  0  0
    3.8713    0.6383   -1.2147 C   0  0  2  0  0  0  0  0  0  0  0  0
    2.4656    1.1958   -0.9025 C   0  0  2  0  0  0  0  0  0  0  0  0
    1.4160    0.0855   -0.6821 C   0  0  1  0  0  0  0  0  0  0  0  0
    1.9655   -1.2295   -0.8376 O   0  0  0  0  0  0  0  0  0  0  0  0
    0.8467    0.1972    0.6406 O   0  0  0  0  0  0  0  0  0  0  0  0
   -0.4313    0.7260    0.6423 C   0  0  0  0  0  0  0  0  0  0  0  0
   -1.5516   -0.0192    0.7641 C   0  0  0  0  0  0  0  0  0  0  0  0
   -2.8302    0.5196    0.7970 O   0  0  0  0  0  0  0  0  0  0  0  0
   -3.0016    1.8730    0.6867 C   0  0  0  0  0  0  0  0  0  0  0  0
   -4.3098    2.3605    0.6691 C   0  0  0  0  0  0  0  0  0  0  0  0
   -4.5361    3.7353    0.5710 C   0  0  0  0  0  0  0  0  0  0  0  0
   -3.4852    4.6328    0.4996 C   0  0  0  0  0  0  0  0  0  0  0  0
   -2.1789    4.1421    0.5188 C   0  0  0  0  0  0  0  0  0  0  0  0
   -1.9333    2.7641    0.6001 C   0  0  0  0  0  0  0  0  0  0  0  0
   -0.5709    2.2139    0.6125 C   0  0  0  0  0  0  0  0  0  0  0  0
    0.3886    2.9752    0.6056 O   0  0  0  0  0  0  0  0  0  0  0  0
   -1.1808    5.0793    0.4694 O   0  0  0  0  0  0  0  0  0  0  0  0
   -5.8377    4.1554    0.5464 O   0  0  0  0  0  0  0  0  0  0  0  0
   -1.5737   -1.5131    0.8339 C   0  0  0  0  0  0  0  0  0  0  0  0
   -2.6478   -2.2134    0.2556 C   0  0  0  0  0  0  0  0  0  0  0  0
   -2.6861   -3.5988    0.3010 C   0  0  0  0  0  0  0  0  0  0  0  0
   -1.6557   -4.3159    0.8997 C   0  0  0  0  0  0  0  0  0  0  0  0
   -0.6051   -3.6609    1.5047 C   0  0  0  0  0  0  0  0  0  0  0  0
   -0.5733   -2.2603    1.4866 C   0  0  0  0  0  0  0  0  0  0  0  0
   -1.6930   -5.6797    0.9063 O   0  0  0  0  0  0  0  0  0  0  0  0
   -3.7419   -4.2972   -0.2205 O   0  0  0  0  0  0  0  0  0  0  0  0
    2.0390    2.0944   -1.9431 O   0  0  0  0  0  0  0  0  0  0  0  0
    3.9651    0.2025   -2.5740 O   0  0  0  0  0  0  0  0  0  0  0  0
    4.6285    0.0667    1.0365 O   0  0  0  0  0  0  0  0  0  0  0  0
    4.3605   -3.2119    0.3987 H   0  0  0  0  0  0  0  0  0  0  0  0
    3.8406   -3.0497   -1.2969 H   0  0  0  0  0  0  0  0  0  0  0  0
    2.6976   -3.6111   -0.0894 H   0  0  0  0  0  0  0  0  0  0  0  0
    2.7563   -1.4364    1.0562 H   0  0  0  0  0  0  0  0  0  0  0  0
    5.1303   -1.0136   -0.6075 H   0  0  0  0  0  0  0  0  0  0  0  0
    4.5870    1.4670   -1.1281 H   0  0  0  0  0  0  0  0  0  0  0  0
    2.5413    1.8095    0.0067 H   0  0  0  0  0  0  0  0  0  0  0  0
    0.6271    0.1614   -1.4404 H   0  0  0  0  0  0  0  0  0  0  0  0
   -5.1485    1.6737    0.7362 H   0  0  0  0  0  0  0  0  0  0  0  0
   -3.6501    5.7049    0.4426 H   0  0  0  0  0  0  0  0  0  0  0  0
   -0.3194    4.6020    0.4093 H   0  0  0  0  0  0  0  0  0  0  0  0
   -5.8400    5.1233    0.4403 H   0  0  0  0  0  0  0  0  0  0  0  0
   -3.4537   -1.6840   -0.2527 H   0  0  0  0  0  0  0  0  0  0  0  0
    0.1978   -4.2247    1.9805 H   0  0  0  0  0  0  0  0  0  0  0  0
    0.2647   -1.7677    1.9844 H   0  0  0  0  0  0  0  0  0  0  0  0
   -2.4617   -5.9012    0.3362 H   0  0  0  0  0  0  0  0  0  0  0  0
   -4.5442   -3.9016    0.1887 H   0  0  0  0  0  0  0  0  0  0  0  0
    2.7646    2.7329   -2.0974 H   0  0  0  0  0  0  0  0  0  0  0  0
    4.8539   -0.1681   -2.7261 H   0  0  0  0  0  0  0  0  0  0  0  0
    5.3594    0.7031    0.8915 H   0  0  0  0  0  0  0  0  0  0  0  0
  1  2  1  0
  2  3  1  0
  3  4  1  0
  4  5  1  0
  5  6  1  0
  6  7  1  0
  6  8  1  0
  8  9  1  0
  9 10  2  0
 10 11  1  0
 11 12  1  0
 12 13  2  0
 13 14  1  0
 14 15  2  0
 15 16  1  0
 16 17  2  0
 17 18  1  0
 18 19  2  0
 16 20  1  0
 14 21  1  0
 10 22  1  0
 22 23  2  0
 23 24  1  0
 24 25  2  0
 25 26  1  0
 26 27  2  0
 25 28  1  0
 24 29  1  0
  5 30  1  0
  4 31  1  0
  3 32  1  0
  7  2  1  0
 18  9  1  0
 17 12  1  0
 27 22  1  0
  1 33  1  0
  1 34  1  0
  1 35  1  0
  2 36  1  1
  3 37  1  6
  4 38  1  6
  5 39  1  1
  6 40  1  6
 13 41  1  0
 15 42  1  0
 20 43  1  0
 21 44  1  0
 23 45  1  0
 26 46  1  0
 27 47  1  0
 28 48  1  0
 29 49  1  0
 30 50  1  0
 31 51  1  0
 32 52  1  0
M  END
$$$$
