
     RDKit          3D

 74 76  0  0  0  0  0  0  0  0999 V2000
    3.0247    1.2682   -1.9893 C   0  0  0  0  0  0  0  0  0  0  0  0
    3.1614    0.5696   -0.6289 C   0  0  2  0  0  0  0  0  0  0  0  0
    4.0036   -0.7100   -0.8256 C   0  0  0  0  0  0  0  0  0  0  0  0
    4.4581   -1.4320    0.4448 C   0  0  0  0  0  0  0  0  0  0  0  0
    5.2537   -0.6224    1.4772 C   0  0  0  0  0  0  0  0  0  0  0  0
    6.6690   -0.1256    1.1083 C   0  0  0  0  0  0  0  0  0  0  0  0
    7.5228   -1.2053    0.4419 C   0  0  0  0  0  0  0  0  0  0  0  0
    6.6631    1.1548    0.2713 C   0  0  0  0  0  0  0  0  0  0  0  0
    7.2978    0.2105    2.3580 O   0  0  0  0  0  0  0  0  0  0  0  0
    1.8454    0.3645    0.1762 C   0  0  1  0  0  0  0  0  0  0  0  0
    1.1674    1.7093    0.5674 C   0  0  0  0  0  0  0  0  0  0  0  0
   -0.3364    1.4327    0.6890 C   0  0  0  0  0  0  0  0  0  0  0  0
   -0.4367   -0.0918    0.6897 C   0  0  2  0  0  0  0  0  0  0  0  0
    0.6620   -0.5216   -0.3290 C   0  0  2  0  0  0  0  0  0  0  0  0
    0.8662   -2.0438   -0.1642 C   0  0  0  0  0  0  0  0  0  0  0  0
   -0.4440   -2.8295   -0.3373 C   0  0  0  0  0  0  0  0  0  0  0  0
   -1.5851   -2.3111    0.5493 C   0  0  0  0  0  0  0  0  0  0  0  0
   -1.7555   -0.8046    0.4575 C   0  0  0  0  0  0  0  0  0  0  0  0
   -2.9079   -0.1519    0.2089 C   0  0  0  0  0  0  0  0  0  0  0  0
   -4.2173   -0.7395    0.0023 C   0  0  0  0  0  0  0  0  0  0  0  0
   -5.3340   -0.0911   -0.3890 C   0  0  0  0  0  0  0  0  0  0  0  0
   -6.6702   -0.8069   -0.4690 C   0  0  0  0  0  0  0  0  0  0  0  0
   -7.7760   -0.0716    0.3081 C   0  0  2  0  0  0  0  0  0  0  0  0
   -7.8444    1.4091   -0.0597 C   0  0  0  0  0  0  0  0  0  0  0  0
   -6.4741    2.0835    0.0627 C   0  0  1  0  0  0  0  0  0  0  0  0
   -5.4299    1.3279   -0.7404 C   0  0  0  0  0  0  0  0  0  0  0  0
   -4.6962    1.8612   -1.7326 C   0  0  0  0  0  0  0  0  0  0  0  0
   -6.5924    3.4336   -0.3891 O   0  0  0  0  0  0  0  0  0  0  0  0
   -7.5702   -0.1800    1.7183 O   0  0  0  0  0  0  0  0  0  0  0  0
    0.2571   -0.2104   -1.7866 C   0  0  0  0  0  0  0  0  0  0  0  0
    2.6607    0.5935   -2.7673 H   0  0  0  0  0  0  0  0  0  0  0  0
    2.3725    2.1430   -1.9540 H   0  0  0  0  0  0  0  0  0  0  0  0
    4.0077    1.6221   -2.3230 H   0  0  0  0  0  0  0  0  0  0  0  0
    3.7632    1.2592   -0.0226 H   0  0  0  0  0  0  0  0  0  0  0  0
    4.8919   -0.4737   -1.4217 H   0  0  0  0  0  0  0  0  0  0  0  0
    3.4417   -1.4183   -1.4444 H   0  0  0  0  0  0  0  0  0  0  0  0
    3.5772   -1.8378    0.9539 H   0  0  0  0  0  0  0  0  0  0  0  0
    5.0395   -2.3142    0.1508 H   0  0  0  0  0  0  0  0  0  0  0  0
    5.3544   -1.2686    2.3620 H   0  0  0  0  0  0  0  0  0  0  0  0
    4.6527    0.2221    1.8374 H   0  0  0  0  0  0  0  0  0  0  0  0
    7.1499   -1.4689   -0.5523 H   0  0  0  0  0  0  0  0  0  0  0  0
    8.5615   -0.8715    0.3349 H   0  0  0  0  0  0  0  0  0  0  0  0
    7.5527   -2.1114    1.0574 H   0  0  0  0  0  0  0  0  0  0  0  0
    6.0638    1.9339    0.7555 H   0  0  0  0  0  0  0  0  0  0  0  0
    7.6766    1.5640    0.1823 H   0  0  0  0  0  0  0  0  0  0  0  0
    6.2835    0.9994   -0.7397 H   0  0  0  0  0  0  0  0  0  0  0  0
    8.2034    0.5108    2.1703 H   0  0  0  0  0  0  0  0  0  0  0  0
    2.1604   -0.0711    1.1365 H   0  0  0  0  0  0  0  0  0  0  0  0
    1.5714    2.0590    1.5248 H   0  0  0  0  0  0  0  0  0  0  0  0
    1.3333    2.5113   -0.1557 H   0  0  0  0  0  0  0  0  0  0  0  0
   -0.8597    1.8800   -0.1635 H   0  0  0  0  0  0  0  0  0  0  0  0
   -0.7538    1.8731    1.6005 H   0  0  0  0  0  0  0  0  0  0  0  0
   -0.1183   -0.4059    1.6985 H   0  0  0  0  0  0  0  0  0  0  0  0
    1.5970   -2.4231   -0.8844 H   0  0  0  0  0  0  0  0  0  0  0  0
    1.2648   -2.2608    0.8346 H   0  0  0  0  0  0  0  0  0  0  0  0
   -0.2608   -3.8855   -0.1048 H   0  0  0  0  0  0  0  0  0  0  0  0
   -0.7572   -2.7991   -1.3878 H   0  0  0  0  0  0  0  0  0  0  0  0
   -2.4936   -2.8571    0.2823 H   0  0  0  0  0  0  0  0  0  0  0  0
   -1.3679   -2.5675    1.5944 H   0  0  0  0  0  0  0  0  0  0  0  0
   -2.8879    0.9350    0.1740 H   0  0  0  0  0  0  0  0  0  0  0  0
   -4.3054   -1.7992    0.2239 H   0  0  0  0  0  0  0  0  0  0  0  0
   -6.5812   -1.8311   -0.0862 H   0  0  0  0  0  0  0  0  0  0  0  0
   -6.9605   -0.8834   -1.5250 H   0  0  0  0  0  0  0  0  0  0  0  0
   -8.7424   -0.5414    0.0938 H   0  0  0  0  0  0  0  0  0  0  0  0
   -8.2217    1.5226   -1.0847 H   0  0  0  0  0  0  0  0  0  0  0  0
   -8.5579    1.9313    0.5901 H   0  0  0  0  0  0  0  0  0  0  0  0
   -6.1550    2.1197    1.1120 H   0  0  0  0  0  0  0  0  0  0  0  0
   -3.9861    1.2706   -2.3021 H   0  0  0  0  0  0  0  0  0  0  0  0
   -4.7943    2.9087   -2.0014 H   0  0  0  0  0  0  0  0  0  0  0  0
   -7.1801    3.8835    0.2401 H   0  0  0  0  0  0  0  0  0  0  0  0
   -7.4280   -1.1191    1.9287 H   0  0  0  0  0  0  0  0  0  0  0  0
    0.2378    0.8634   -1.9948 H   0  0  0  0  0  0  0  0  0  0  0  0
   -0.7381   -0.5916   -2.0357 H   0  0  0  0  0  0  0  0  0  0  0  0
    0.9504   -0.6816   -2.4900 H   0  0  0  0  0  0  0  0  0  0  0  0
  1  2  1  0
  2  3  1  0
  3  4  1  0
  4  5  1  0
  5  6  1  0
  6  7  1  0
  6  8  1  0
  6  9  1  0
  2 10  1  0
 10 11  1  0
 11 12  1  0
 12 13  1  0
 13 14  1  0
 14 15  1  0
 15 16  1  0
 16 17  1  0
 17 18  1  0
 18 19  2  0
 19 20  1  0
 20 21  2  0
 21 22  1  0
 22 23  1  0
 23 24  1  0
 24 25  1  0
 25 26  1  0
 26 27  2  0
 25 28  1  0
 23 29  1  0
 14 30  1  6
 14 10  1  0
 18 13  1  0
 26 21  1  0
  1 31  1  0
  1 32  1  0
  1 33  1  0
  2 34  1  1
  3 35  1  0
  3 36  1  0
  4 37  1  0
  4 38  1  0
  5 39  1  0
  5 40  1  0
  7 41  1  0
  7 42  1  0
  7 43  1  0
  8 44  1  0
  8 45  1  0
  8 46  1  0
  9 47  1  0
 10 48  1  1
 11 49  1  0
 11 50  1  0
 12 51  1  0
 12 52  1  0
 13 53  1  1
 15 54  1  0
 15 55  1  0
 16 56  1  0
 16 57  1  0
 17 58  1  0
 17 59  1  0
 19 60  1  0
 20 61  1  0
 22 62  1  0
 22 63  1  0
 23 64  1  1
 24 65  1  0
 24 66  1  0
 25 67  1  1
 27 68  1  0
 27 69  1  0
 28 70  1  0
 29 71  1  0
 30 72  1  0
 30 73  1  0
 30 74  1  0
M  END
$$$$
