
     RDKit          3D

 57 57  0  0  0  0  0  0  0  0999 V2000
   -6.0033    3.1462    0.2742 C   0  0  0  0  0  0  0  0  0  0  0  0
   -6.1719    1.6560    0.0157 C   0  0  0  0  0  0  0  0  0  0  0  0
   -5.0676    0.8457    0.6958 C   0  0  0  0  0  0  0  0  0  0  0  0
   -5.1711   -0.6540    0.4150 C   0  0  0  0  0  0  0  0  0  0  0  0
   -4.8769   -1.0727   -1.0320 C   0  0  0  0  0  0  0  0  0  0  0  0
   -3.4662   -0.7368   -1.5514 C   0  0  1  0  0  0  0  0  0  0  0  0
   -2.3691   -1.4098   -0.7677 C   0  0  0  0  0  0  0  0  0  0  0  0
   -1.3182   -0.7603   -0.2353 C   0  0  0  0  0  0  0  0  0  0  0  0
   -0.2242   -1.3360    0.6368 C   0  0  1  0  0  0  0  0  0  0  0  0
   -0.4531   -2.7426    1.2272 C   0  0  1  0  0  0  0  0  0  0  0  0
    0.9070   -3.1486    1.7790 C   0  0  0  0  0  0  0  0  0  0  0  0
    1.8539   -2.4046    0.8774 C   0  0  0  0  0  0  0  0  0  0  0  0
    3.0677   -2.5800    0.9270 O   0  0  0  0  0  0  0  0  0  0  0  0
    1.1349   -1.4737   -0.0875 C   0  0  2  0  0  0  0  0  0  0  0  0
    1.8465   -0.1324   -0.3082 C   0  0  0  0  0  0  0  0  0  0  0  0
    3.0800   -0.2583   -1.1666 C   0  0  0  0  0  0  0  0  0  0  0  0
    4.3500    0.0286   -0.8341 C   0  0  0  0  0  0  0  0  0  0  0  0
    4.8658    0.5466    0.4783 C   0  0  0  0  0  0  0  0  0  0  0  0
    5.5778    1.8986    0.3512 C   0  0  0  0  0  0  0  0  0  0  0  0
    6.9218    1.7946   -0.3616 C   0  0  0  0  0  0  0  0  0  0  0  0
    7.5739    3.1428   -0.4593 C   0  0  0  0  0  0  0  0  0  0  0  0
    7.1991    4.0874   -1.1356 O   0  0  0  0  0  0  0  0  0  0  0  0
    8.6707    3.2520    0.3092 O   0  0  0  0  0  0  0  0  0  0  0  0
   -1.4112   -2.6891    2.2717 O   0  0  0  0  0  0  0  0  0  0  0  0
   -3.3391   -1.1780   -2.8986 O   0  0  0  0  0  0  0  0  0  0  0  0
   -6.9067    3.6908   -0.0300 H   0  0  0  0  0  0  0  0  0  0  0  0
   -5.1578    3.5468   -0.2975 H   0  0  0  0  0  0  0  0  0  0  0  0
   -5.8263    3.3548    1.3370 H   0  0  0  0  0  0  0  0  0  0  0  0
   -6.1768    1.4897   -1.0659 H   0  0  0  0  0  0  0  0  0  0  0  0
   -7.1480    1.3362    0.3982 H   0  0  0  0  0  0  0  0  0  0  0  0
   -5.1465    0.9921    1.7803 H   0  0  0  0  0  0  0  0  0  0  0  0
   -4.0816    1.2236    0.4064 H   0  0  0  0  0  0  0  0  0  0  0  0
   -6.1803   -1.0010    0.6777 H   0  0  0  0  0  0  0  0  0  0  0  0
   -4.4891   -1.1862    1.0883 H   0  0  0  0  0  0  0  0  0  0  0  0
   -5.0399   -2.1553   -1.1153 H   0  0  0  0  0  0  0  0  0  0  0  0
   -5.6180   -0.6318   -1.7107 H   0  0  0  0  0  0  0  0  0  0  0  0
   -3.3262    0.3497   -1.5628 H   0  0  0  0  0  0  0  0  0  0  0  0
   -2.4869   -2.4811   -0.6302 H   0  0  0  0  0  0  0  0  0  0  0  0
   -1.2482    0.3155   -0.4046 H   0  0  0  0  0  0  0  0  0  0  0  0
   -0.1210   -0.6378    1.4791 H   0  0  0  0  0  0  0  0  0  0  0  0
   -0.7805   -3.4580    0.4627 H   0  0  0  0  0  0  0  0  0  0  0  0
    1.0502   -2.8337    2.8196 H   0  0  0  0  0  0  0  0  0  0  0  0
    1.0588   -4.2299    1.6964 H   0  0  0  0  0  0  0  0  0  0  0  0
    1.0109   -2.0127   -1.0384 H   0  0  0  0  0  0  0  0  0  0  0  0
    2.0729    0.3346    0.6550 H   0  0  0  0  0  0  0  0  0  0  0  0
    1.1741    0.5606   -0.8271 H   0  0  0  0  0  0  0  0  0  0  0  0
    2.9030   -0.6319   -2.1742 H   0  0  0  0  0  0  0  0  0  0  0  0
    5.1075   -0.1644   -1.5913 H   0  0  0  0  0  0  0  0  0  0  0  0
    4.0627    0.6563    1.2110 H   0  0  0  0  0  0  0  0  0  0  0  0
    5.5538   -0.1967    0.9012 H   0  0  0  0  0  0  0  0  0  0  0  0
    4.9253    2.6192   -0.1623 H   0  0  0  0  0  0  0  0  0  0  0  0
    5.7443    2.3036    1.3581 H   0  0  0  0  0  0  0  0  0  0  0  0
    6.8207    1.4131   -1.3794 H   0  0  0  0  0  0  0  0  0  0  0  0
    7.5871    1.1065    0.1750 H   0  0  0  0  0  0  0  0  0  0  0  0
    8.9861    4.1653    0.1394 H   0  0  0  0  0  0  0  0  0  0  0  0
   -1.8127   -3.5757    2.3548 H   0  0  0  0  0  0  0  0  0  0  0  0
   -3.6882   -2.0843   -2.9503 H   0  0  0  0  0  0  0  0  0  0  0  0
  1  2  1  0
  2  3  1  0
  3  4  1  0
  4  5  1  0
  5  6  1  0
  6  7  1  0
  7  8  2  0
  8  9  1  0
  9 10  1  0
 10 11  1  0
 11 12  1  0
 12 13  2  0
 12 14  1  0
 14 15  1  0
 15 16  1  0
 16 17  2  0
 17 18  1  0
 18 19  1  0
 19 20  1  0
 20 21  1  0
 21 22  2  0
 21 23  1  0
 10 24  1  0
  6 25  1  0
 14  9  1  0
  1 26  1  0
  1 27  1  0
  1 28  1  0
  2 29  1  0
  2 30  1  0
  3 31  1  0
  3 32  1  0
  4 33  1  0
  4 34  1  0
  5 35  1  0
  5 36  1  0
  6 37  1  6
  7 38  1  0
  8 39  1  0
  9 40  1  1
 10 41  1  6
 11 42  1  0
 11 43  1  0
 14 44  1  6
 15 45  1  0
 15 46  1  0
 16 47  1  0
 17 48  1  0
 18 49  1  0
 18 50  1  0
 19 51  1  0
 19 52  1  0
 20 53  1  0
 20 54  1  0
 23 55  1  0
 24 56  1  0
 25 57  1  0
M  END
$$$$
