
     RDKit          3D

 50 49  0  0  0  0  0  0  0  0999 V2000
    7.8076    1.1992    0.4113 C   0  0  0  0  0  0  0  0  0  0  0  0
    7.0558    0.0490    1.0633 C   0  0  0  0  0  0  0  0  0  0  0  0
    5.7058   -0.2488    0.4061 C   0  0  0  0  0  0  0  0  0  0  0  0
    5.8337   -0.7579   -1.0337 C   0  0  0  0  0  0  0  0  0  0  0  0
    4.4972   -1.2229   -1.6220 C   0  0  0  0  0  0  0  0  0  0  0  0
    3.5266   -0.0949   -1.8329 C   0  0  0  0  0  0  0  0  0  0  0  0
    2.3671    0.1187   -1.1886 C   0  0  0  0  0  0  0  0  0  0  0  0
    1.7734   -0.6857   -0.0679 C   0  0  0  0  0  0  0  0  0  0  0  0
    0.5372   -1.4060   -0.5229 C   0  0  0  0  0  0  0  0  0  0  0  0
   -0.7338   -1.1940   -0.1404 C   0  0  0  0  0  0  0  0  0  0  0  0
   -1.2490   -0.1781    0.8390 C   0  0  0  0  0  0  0  0  0  0  0  0
   -2.1122    0.8374    0.1456 C   0  0  0  0  0  0  0  0  0  0  0  0
   -3.4152    1.0897    0.3545 C   0  0  0  0  0  0  0  0  0  0  0  0
   -4.3184    0.4339    1.3598 C   0  0  0  0  0  0  0  0  0  0  0  0
   -5.1650   -0.6975    0.7677 C   0  0  0  0  0  0  0  0  0  0  0  0
   -6.0991   -0.2983   -0.3803 C   0  0  0  0  0  0  0  0  0  0  0  0
   -7.1405    0.7457    0.0200 C   0  0  0  0  0  0  0  0  0  0  0  0
   -8.1227    1.0055   -1.0910 C   0  0  0  0  0  0  0  0  0  0  0  0
   -8.1260    0.5248   -2.2106 O   0  0  0  0  0  0  0  0  0  0  0  0
   -9.0734    1.8876   -0.7225 O   0  0  0  0  0  0  0  0  0  0  0  0
    8.7151    1.4249    0.9807 H   0  0  0  0  0  0  0  0  0  0  0  0
    7.1926    2.1042    0.3819 H   0  0  0  0  0  0  0  0  0  0  0  0
    8.1112    0.9524   -0.6103 H   0  0  0  0  0  0  0  0  0  0  0  0
    6.8809    0.3002    2.1164 H   0  0  0  0  0  0  0  0  0  0  0  0
    7.6834   -0.8498    1.0526 H   0  0  0  0  0  0  0  0  0  0  0  0
    5.0844    0.6537    0.4352 H   0  0  0  0  0  0  0  0  0  0  0  0
    5.1920   -1.0072    1.0099 H   0  0  0  0  0  0  0  0  0  0  0  0
    6.2615    0.0227   -1.6738 H   0  0  0  0  0  0  0  0  0  0  0  0
    6.5317   -1.6040   -1.0548 H   0  0  0  0  0  0  0  0  0  0  0  0
    4.6880   -1.6819   -2.6001 H   0  0  0  0  0  0  0  0  0  0  0  0
    4.0752   -2.0174   -0.9988 H   0  0  0  0  0  0  0  0  0  0  0  0
    3.8033    0.6101   -2.6168 H   0  0  0  0  0  0  0  0  0  0  0  0
    1.7779    0.9856   -1.4877 H   0  0  0  0  0  0  0  0  0  0  0  0
    2.4788   -1.4249    0.3239 H   0  0  0  0  0  0  0  0  0  0  0  0
    1.5707   -0.0070    0.7658 H   0  0  0  0  0  0  0  0  0  0  0  0
    0.7152   -2.1947   -1.2541 H   0  0  0  0  0  0  0  0  0  0  0  0
   -1.5025   -1.8257   -0.5864 H   0  0  0  0  0  0  0  0  0  0  0  0
   -0.4390    0.3532    1.3463 H   0  0  0  0  0  0  0  0  0  0  0  0
   -1.7952   -0.7148    1.6206 H   0  0  0  0  0  0  0  0  0  0  0  0
   -1.6032    1.4226   -0.6207 H   0  0  0  0  0  0  0  0  0  0  0  0
   -3.8813    1.8602   -0.2592 H   0  0  0  0  0  0  0  0  0  0  0  0
   -3.7401    0.0374    2.2011 H   0  0  0  0  0  0  0  0  0  0  0  0
   -4.9659    1.2020    1.7984 H   0  0  0  0  0  0  0  0  0  0  0  0
   -5.7647   -1.1396    1.5734 H   0  0  0  0  0  0  0  0  0  0  0  0
   -4.4987   -1.4930    0.4094 H   0  0  0  0  0  0  0  0  0  0  0  0
   -5.5162    0.0656   -1.2351 H   0  0  0  0  0  0  0  0  0  0  0  0
   -6.6121   -1.2034   -0.7312 H   0  0  0  0  0  0  0  0  0  0  0  0
   -7.7000    0.3942    0.8938 H   0  0  0  0  0  0  0  0  0  0  0  0
   -6.6540    1.6959    0.2627 H   0  0  0  0  0  0  0  0  0  0  0  0
   -9.6381    1.9708   -1.5192 H   0  0  0  0  0  0  0  0  0  0  0  0
  1  2  1  0
  2  3  1  0
  3  4  1  0
  4  5  1  0
  5  6  1  0
  6  7  2  0
  7  8  1  0
  8  9  1  0
  9 10  2  0
 10 11  1  0
 11 12  1  0
 12 13  2  0
 13 14  1  0
 14 15  1  0
 15 16  1  0
 16 17  1  0
 17 18  1  0
 18 19  2  0
 18 20  1  0
  1 21  1  0
  1 22  1  0
  1 23  1  0
  2 24  1  0
  2 25  1  0
  3 26  1  0
  3 27  1  0
  4 28  1  0
  4 29  1  0
  5 30  1  0
  5 31  1  0
  6 32  1  0
  7 33  1  0
  8 34  1  0
  8 35  1  0
  9 36  1  0
 10 37  1  0
 11 38  1  0
 11 39  1  0
 12 40  1  0
 13 41  1  0
 14 42  1  0
 14 43  1  0
 15 44  1  0
 15 45  1  0
 16 46  1  0
 16 47  1  0
 17 48  1  0
 17 49  1  0
 20 50  1  0
M  END
$$$$
