
     RDKit          3D

 51 53  0  0  0  0  0  0  0  0999 V2000
    4.0648    1.2141   -3.4342 C   0  0  0  0  0  0  0  0  0  0  0  0
    3.0630    0.6372   -2.4812 C   0  0  0  0  0  0  0  0  0  0  0  0
    3.3194    0.1525   -1.2462 C   0  0  0  0  0  0  0  0  0  0  0  0
    4.6947    0.0414   -0.6418 C   0  0  0  0  0  0  0  0  0  0  0  0
    2.2179   -0.3293   -0.3648 C   0  0  0  0  0  0  0  0  0  0  0  0
    2.4210   -1.0383    0.6163 O   0  0  0  0  0  0  0  0  0  0  0  0
    0.9999    0.1875   -0.7223 O   0  0  0  0  0  0  0  0  0  0  0  0
   -0.0798   -0.0655    0.1911 C   0  0  1  0  0  0  0  0  0  0  0  0
   -0.9067    1.2028    0.5340 C   0  0  2  0  0  0  0  0  0  0  0  0
   -0.2289    2.5623    0.6808 C   0  0  1  0  0  0  0  0  0  0  0  0
    0.2473    2.4993    2.1015 C   0  0  0  0  0  0  0  0  0  0  0  0
    1.2381    3.0463    2.5658 O   0  0  0  0  0  0  0  0  0  0  0  0
   -0.6318    1.7381    2.8199 O   0  0  0  0  0  0  0  0  0  0  0  0
   -1.5482    1.0465    1.9377 C   0  0  2  0  0  0  0  0  0  0  0  0
   -1.7377   -0.3678    2.5458 C   0  0  0  0  0  0  0  0  0  0  0  0
   -2.5743   -1.4084    1.7616 C   0  0  2  0  0  0  0  0  0  0  0  0
   -2.4391   -1.2113    0.2443 C   0  0  1  0  0  0  0  0  0  0  0  0
   -0.9714   -1.2534   -0.2947 C   0  0  1  0  0  0  0  0  0  0  0  0
   -1.3311   -1.3045   -1.7745 C   0  0  0  0  0  0  0  0  0  0  0  0
   -0.6995   -0.8480   -2.7155 O   0  0  0  0  0  0  0  0  0  0  0  0
   -2.6050   -2.0371   -1.9593 C   0  0  0  0  0  0  0  0  0  0  0  0
   -3.1844   -2.0696   -0.7506 C   0  0  0  0  0  0  0  0  0  0  0  0
   -0.2404   -2.5878   -0.0035 C   0  0  0  0  0  0  0  0  0  0  0  0
   -4.0379   -1.3437    2.2207 C   0  0  0  0  0  0  0  0  0  0  0  0
    0.8076    2.9754   -0.3367 C   0  0  0  0  0  0  0  0  0  0  0  0
    4.1687    0.5631   -4.3096 H   0  0  0  0  0  0  0  0  0  0  0  0
    5.0562    1.3558   -2.9949 H   0  0  0  0  0  0  0  0  0  0  0  0
    3.7219    2.1985   -3.7743 H   0  0  0  0  0  0  0  0  0  0  0  0
    2.0386    0.6403   -2.8567 H   0  0  0  0  0  0  0  0  0  0  0  0
    4.9623    0.9841   -0.1495 H   0  0  0  0  0  0  0  0  0  0  0  0
    4.7602   -0.7604    0.0930 H   0  0  0  0  0  0  0  0  0  0  0  0
    5.4590   -0.1844   -1.3977 H   0  0  0  0  0  0  0  0  0  0  0  0
    0.3846   -0.3582    1.1298 H   0  0  0  0  0  0  0  0  0  0  0  0
   -1.6569    1.3299   -0.2526 H   0  0  0  0  0  0  0  0  0  0  0  0
   -1.0051    3.3410    0.6706 H   0  0  0  0  0  0  0  0  0  0  0  0
   -2.4980    1.5921    1.9785 H   0  0  0  0  0  0  0  0  0  0  0  0
   -0.7501   -0.7981    2.7606 H   0  0  0  0  0  0  0  0  0  0  0  0
   -2.1522   -0.2488    3.5614 H   0  0  0  0  0  0  0  0  0  0  0  0
   -2.2079   -2.4056    2.0294 H   0  0  0  0  0  0  0  0  0  0  0  0
   -2.9011   -0.2307    0.0483 H   0  0  0  0  0  0  0  0  0  0  0  0
   -2.9441   -2.4458   -2.8945 H   0  0  0  0  0  0  0  0  0  0  0  0
   -4.1463   -2.5216   -0.5588 H   0  0  0  0  0  0  0  0  0  0  0  0
   -0.8673   -3.4657   -0.2042 H   0  0  0  0  0  0  0  0  0  0  0  0
    0.0865   -2.6520    1.0467 H   0  0  0  0  0  0  0  0  0  0  0  0
    0.6437   -2.6910   -0.6462 H   0  0  0  0  0  0  0  0  0  0  0  0
   -4.1116   -1.5660    3.2911 H   0  0  0  0  0  0  0  0  0  0  0  0
   -4.4706   -0.3509    2.0428 H   0  0  0  0  0  0  0  0  0  0  0  0
   -4.6503   -2.0903    1.7052 H   0  0  0  0  0  0  0  0  0  0  0  0
    1.7734    2.4928   -0.1840 H   0  0  0  0  0  0  0  0  0  0  0  0
    0.4567    2.7762   -1.3534 H   0  0  0  0  0  0  0  0  0  0  0  0
    0.9919    4.0567   -0.2756 H   0  0  0  0  0  0  0  0  0  0  0  0
  1  2  1  0
  2  3  2  0
  3  4  1  0
  3  5  1  0
  5  6  2  0
  5  7  1  0
  7  8  1  0
  8  9  1  0
  9 10  1  0
 10 11  1  0
 11 12  2  0
 11 13  1  0
 13 14  1  0
 14 15  1  0
 15 16  1  0
 16 17  1  0
 17 18  1  0
 18 19  1  0
 19 20  2  0
 19 21  1  0
 21 22  2  0
 18 23  1  1
 16 24  1  0
 10 25  1  0
 18  8  1  0
 14  9  1  0
 22 17  1  0
  1 26  1  0
  1 27  1  0
  1 28  1  0
  2 29  1  0
  4 30  1  0
  4 31  1  0
  4 32  1  0
  8 33  1  1
  9 34  1  6
 10 35  1  1
 14 36  1  6
 15 37  1  0
 15 38  1  0
 16 39  1  6
 17 40  1  1
 21 41  1  0
 22 42  1  0
 23 43  1  0
 23 44  1  0
 23 45  1  0
 24 46  1  0
 24 47  1  0
 24 48  1  0
 25 49  1  0
 25 50  1  0
 25 51  1  0
M  END
$$$$
