
     RDKit          3D

 29 31  0  0  0  0  0  0  0  0999 V2000
   -2.6880   -1.1682    0.1551 C   0  0  0  0  0  0  0  0  0  0  0  0
   -4.0798   -1.0530    0.0811 C   0  0  0  0  0  0  0  0  0  0  0  0
   -4.6437    0.1275   -0.3888 C   0  0  0  0  0  0  0  0  0  0  0  0
   -3.8411    1.1912   -0.7798 C   0  0  0  0  0  0  0  0  0  0  0  0
   -2.4509    1.0754   -0.7037 C   0  0  0  0  0  0  0  0  0  0  0  0
   -1.8562   -0.1072   -0.2414 C   0  0  0  0  0  0  0  0  0  0  0  0
   -0.3882   -0.2291   -0.1750 C   0  0  0  0  0  0  0  0  0  0  0  0
    0.2361   -1.2732   -0.7433 C   0  0  0  0  0  0  0  0  0  0  0  0
    1.5891   -1.5107   -0.7718 O   0  0  0  0  0  0  0  0  0  0  0  0
    2.4099   -0.5914   -0.1701 C   0  0  0  0  0  0  0  0  0  0  0  0
    1.9243    0.5547    0.4570 C   0  0  0  0  0  0  0  0  0  0  0  0
    0.4702    0.7978    0.4815 C   0  0  0  0  0  0  0  0  0  0  0  0
    0.0140    1.7982    1.0224 O   0  0  0  0  0  0  0  0  0  0  0  0
    2.8092    1.4590    1.0542 C   0  0  0  0  0  0  0  0  0  0  0  0
    4.1812    1.2069    1.0181 C   0  0  0  0  0  0  0  0  0  0  0  0
    4.6561    0.0595    0.3889 C   0  0  0  0  0  0  0  0  0  0  0  0
    3.7822   -0.8453   -0.2076 C   0  0  0  0  0  0  0  0  0  0  0  0
    6.0041   -0.1431    0.3791 O   0  0  0  0  0  0  0  0  0  0  0  0
   -5.9947    0.2839   -0.4785 O   0  0  0  0  0  0  0  0  0  0  0  0
   -2.2600   -2.0921    0.5381 H   0  0  0  0  0  0  0  0  0  0  0  0
   -4.6995   -1.8866    0.3959 H   0  0  0  0  0  0  0  0  0  0  0  0
   -4.2928    2.1124   -1.1366 H   0  0  0  0  0  0  0  0  0  0  0  0
   -1.8373    1.9229   -1.0034 H   0  0  0  0  0  0  0  0  0  0  0  0
   -0.2770   -2.0693   -1.2701 H   0  0  0  0  0  0  0  0  0  0  0  0
    2.4345    2.3545    1.5452 H   0  0  0  0  0  0  0  0  0  0  0  0
    4.8772    1.9031    1.4791 H   0  0  0  0  0  0  0  0  0  0  0  0
    4.1474   -1.7409   -0.6995 H   0  0  0  0  0  0  0  0  0  0  0  0
    6.1980   -0.9711   -0.0908 H   0  0  0  0  0  0  0  0  0  0  0  0
   -6.4243   -0.5164   -0.1354 H   0  0  0  0  0  0  0  0  0  0  0  0
  1  2  2  0
  2  3  1  0
  3  4  2  0
  4  5  1  0
  5  6  2  0
  6  7  1  0
  7  8  2  0
  8  9  1  0
  9 10  1  0
 10 11  2  0
 11 12  1  0
 12 13  2  0
 11 14  1  0
 14 15  2  0
 15 16  1  0
 16 17  2  0
 16 18  1  0
  3 19  1  0
  6  1  1  0
 12  7  1  0
 17 10  1  0
  1 20  1  0
  2 21  1  0
  4 22  1  0
  5 23  1  0
  8 24  1  0
 14 25  1  0
 15 26  1  0
 17 27  1  0
 18 28  1  0
 19 29  1  0
M  END
$$$$
