
     RDKit          3D

 75 78  0  0  0  0  0  0  0  0999 V2000
   -3.3988   -3.5607   -0.6214 C   0  0  0  0  0  0  0  0  0  0  0  0
   -2.6556   -2.2709   -0.2421 C   0  0  2  0  0  0  0  0  0  0  0  0
   -3.4159   -1.1001   -0.8171 C   0  0  0  0  0  0  0  0  0  0  0  0
   -3.9452   -0.1267   -0.0540 C   0  0  0  0  0  0  0  0  0  0  0  0
   -4.6743    1.0907   -0.5880 C   0  0  2  0  0  0  0  0  0  0  0  0
   -3.9321    2.3623   -0.1501 C   0  0  0  0  0  0  0  0  0  0  0  0
   -6.1739    1.0744   -0.1817 C   0  0  0  0  0  0  0  0  0  0  0  0
   -6.9637    2.1742   -0.9025 C   0  0  0  0  0  0  0  0  0  0  0  0
   -6.4146    1.1812    1.3292 C   0  0  0  0  0  0  0  0  0  0  0  0
   -1.1509   -2.3699   -0.6079 C   0  0  1  0  0  0  0  0  0  0  0  0
   -0.7988   -2.7453   -2.0670 C   0  0  0  0  0  0  0  0  0  0  0  0
    0.6616   -2.2827   -2.2812 C   0  0  0  0  0  0  0  0  0  0  0  0
    1.0993   -1.7377   -0.9181 C   0  0  2  0  0  0  0  0  0  0  0  0
   -0.2088   -1.1673   -0.3259 C   0  0  2  0  0  0  0  0  0  0  0  0
    0.0444   -0.8844    1.1580 C   0  0  0  0  0  0  0  0  0  0  0  0
    1.1746    0.1410    1.3353 C   0  0  0  0  0  0  0  0  0  0  0  0
    2.4926   -0.2367    0.5978 C   0  0  1  0  0  0  0  0  0  0  0  0
    2.2642   -0.7424   -0.8628 C   0  0  1  0  0  0  0  0  0  0  0  0
    3.5617   -1.3649   -1.3952 C   0  0  0  0  0  0  0  0  0  0  0  0
    4.7607   -0.5058   -1.1334 C   0  0  0  0  0  0  0  0  0  0  0  0
    4.7906    0.5160   -0.2556 C   0  0  0  0  0  0  0  0  0  0  0  0
    3.5951    0.8991    0.6318 C   0  0  2  0  0  0  0  0  0  0  0  0
    4.0768    1.1263    2.1048 C   0  0  0  0  0  0  0  0  0  0  0  0
    5.5251    0.6966    2.3654 C   0  0  0  0  0  0  0  0  0  0  0  0
    6.4936    1.4002    1.4160 C   0  0  1  0  0  0  0  0  0  0  0  0
    6.0598    1.3195   -0.0566 C   0  0  0  0  0  0  0  0  0  0  0  0
    6.5867    2.7706    1.8164 O   0  0  0  0  0  0  0  0  0  0  0  0
    3.0260    2.2410    0.1008 C   0  0  0  0  0  0  0  0  0  0  0  0
   -0.6537    0.1339   -1.0469 C   0  0  0  0  0  0  0  0  0  0  0  0
   -3.4579   -3.6921   -1.7085 H   0  0  0  0  0  0  0  0  0  0  0  0
   -4.4245   -3.5473   -0.2324 H   0  0  0  0  0  0  0  0  0  0  0  0
   -2.8978   -4.4394   -0.2004 H   0  0  0  0  0  0  0  0  0  0  0  0
   -2.6980   -2.2011    0.8535 H   0  0  0  0  0  0  0  0  0  0  0  0
   -3.5198   -1.0538   -1.8971 H   0  0  0  0  0  0  0  0  0  0  0  0
   -3.8219   -0.1777    1.0267 H   0  0  0  0  0  0  0  0  0  0  0  0
   -4.6338    1.0605   -1.6856 H   0  0  0  0  0  0  0  0  0  0  0  0
   -3.8569    2.4369    0.9404 H   0  0  0  0  0  0  0  0  0  0  0  0
   -2.9139    2.3747   -0.5546 H   0  0  0  0  0  0  0  0  0  0  0  0
   -4.4310    3.2647   -0.5196 H   0  0  0  0  0  0  0  0  0  0  0  0
   -6.5938    0.1148   -0.5113 H   0  0  0  0  0  0  0  0  0  0  0  0
   -6.7657    2.1568   -1.9812 H   0  0  0  0  0  0  0  0  0  0  0  0
   -8.0410    2.0281   -0.7606 H   0  0  0  0  0  0  0  0  0  0  0  0
   -6.7132    3.1712   -0.5227 H   0  0  0  0  0  0  0  0  0  0  0  0
   -7.4848    1.1008    1.5531 H   0  0  0  0  0  0  0  0  0  0  0  0
   -5.9104    0.3782    1.8770 H   0  0  0  0  0  0  0  0  0  0  0  0
   -6.0654    2.1394    1.7299 H   0  0  0  0  0  0  0  0  0  0  0  0
   -0.7805   -3.2079    0.0057 H   0  0  0  0  0  0  0  0  0  0  0  0
   -0.8896   -3.8267   -2.2265 H   0  0  0  0  0  0  0  0  0  0  0  0
   -1.4546   -2.2518   -2.7920 H   0  0  0  0  0  0  0  0  0  0  0  0
    1.2972   -3.1109   -2.6079 H   0  0  0  0  0  0  0  0  0  0  0  0
    0.7018   -1.5093   -3.0576 H   0  0  0  0  0  0  0  0  0  0  0  0
    1.4025   -2.6133   -0.3178 H   0  0  0  0  0  0  0  0  0  0  0  0
   -0.8676   -0.5109    1.6411 H   0  0  0  0  0  0  0  0  0  0  0  0
    0.3152   -1.8103    1.6836 H   0  0  0  0  0  0  0  0  0  0  0  0
    1.3629    0.2524    2.4086 H   0  0  0  0  0  0  0  0  0  0  0  0
    0.8039    1.1123    0.9936 H   0  0  0  0  0  0  0  0  0  0  0  0
    2.9017   -1.0948    1.1560 H   0  0  0  0  0  0  0  0  0  0  0  0
    2.0351    0.1056   -1.5169 H   0  0  0  0  0  0  0  0  0  0  0  0
    3.4710   -1.5321   -2.4777 H   0  0  0  0  0  0  0  0  0  0  0  0
    3.7394   -2.3462   -0.9368 H   0  0  0  0  0  0  0  0  0  0  0  0
    5.6508   -0.7574   -1.7074 H   0  0  0  0  0  0  0  0  0  0  0  0
    3.9779    2.1869    2.3764 H   0  0  0  0  0  0  0  0  0  0  0  0
    3.4453    0.5874    2.8178 H   0  0  0  0  0  0  0  0  0  0  0  0
    5.6108   -0.3912    2.2540 H   0  0  0  0  0  0  0  0  0  0  0  0
    5.7796    0.9402    3.4028 H   0  0  0  0  0  0  0  0  0  0  0  0
    7.4920    0.9662    1.5380 H   0  0  0  0  0  0  0  0  0  0  0  0
    6.8847    0.8793   -0.6327 H   0  0  0  0  0  0  0  0  0  0  0  0
    5.9199    2.3246   -0.4761 H   0  0  0  0  0  0  0  0  0  0  0  0
    7.2736    3.1907    1.2688 H   0  0  0  0  0  0  0  0  0  0  0  0
    2.6073    2.1446   -0.9063 H   0  0  0  0  0  0  0  0  0  0  0  0
    2.2417    2.6388    0.7554 H   0  0  0  0  0  0  0  0  0  0  0  0
    3.7975    3.0196    0.0525 H   0  0  0  0  0  0  0  0  0  0  0  0
   -1.0603   -0.0481   -2.0450 H   0  0  0  0  0  0  0  0  0  0  0  0
   -1.4103    0.6577   -0.4592 H   0  0  0  0  0  0  0  0  0  0  0  0
    0.1548    0.8585   -1.1739 H   0  0  0  0  0  0  0  0  0  0  0  0
  1  2  1  0
  2  3  1  0
  3  4  2  0
  4  5  1  0
  5  6  1  0
  5  7  1  0
  7  8  1  0
  7  9  1  0
  2 10  1  0
 10 11  1  0
 11 12  1  0
 12 13  1  0
 13 14  1  0
 14 15  1  0
 15 16  1  0
 16 17  1  0
 17 18  1  0
 18 19  1  0
 19 20  1  0
 20 21  2  0
 21 22  1  0
 22 23  1  0
 23 24  1  0
 24 25  1  0
 25 26  1  0
 25 27  1  0
 22 28  1  6
 14 29  1  6
 14 10  1  0
 18 13  1  0
 22 17  1  0
 26 21  1  0
  1 30  1  0
  1 31  1  0
  1 32  1  0
  2 33  1  1
  3 34  1  0
  4 35  1  0
  5 36  1  6
  6 37  1  0
  6 38  1  0
  6 39  1  0
  7 40  1  0
  8 41  1  0
  8 42  1  0
  8 43  1  0
  9 44  1  0
  9 45  1  0
  9 46  1  0
 10 47  1  1
 11 48  1  0
 11 49  1  0
 12 50  1  0
 12 51  1  0
 13 52  1  1
 15 53  1  0
 15 54  1  0
 16 55  1  0
 16 56  1  0
 17 57  1  1
 18 58  1  6
 19 59  1  0
 19 60  1  0
 20 61  1  0
 23 62  1  0
 23 63  1  0
 24 64  1  0
 24 65  1  0
 25 66  1  6
 26 67  1  0
 26 68  1  0
 27 69  1  0
 28 70  1  0
 28 71  1  0
 28 72  1  0
 29 73  1  0
 29 74  1  0
 29 75  1  0
M  END
$$$$
