
     RDKit          3D

 28 31  0  0  0  0  0  0  0  0999 V2000
   -2.9843   -0.3510    0.4727 C   0  0  0  0  0  0  0  0  0  0  0  0
   -1.6123   -0.3521    0.7696 C   0  0  0  0  0  0  0  0  0  0  0  0
   -0.6784    0.0204   -0.2001 C   0  0  0  0  0  0  0  0  0  0  0  0
   -1.1167    0.3911   -1.4667 C   0  0  0  0  0  0  0  0  0  0  0  0
   -2.4716    0.3963   -1.7732 C   0  0  0  0  0  0  0  0  0  0  0  0
   -3.4004    0.0253   -0.8011 C   0  0  0  0  0  0  0  0  0  0  0  0
   -4.7229    0.0457   -1.1484 O   0  0  0  0  0  0  0  0  0  0  0  0
   -2.9056    0.7598   -3.0150 O   0  0  0  0  0  0  0  0  0  0  0  0
   -0.1787    0.7651   -2.4545 O   0  0  0  0  0  0  0  0  0  0  0  0
    1.1989    0.7855   -2.2357 C   0  0  0  0  0  0  0  0  0  0  0  0
    1.9934    1.1114   -3.1080 O   0  0  0  0  0  0  0  0  0  0  0  0
    1.6606    0.3903   -0.8803 C   0  0  0  0  0  0  0  0  0  0  0  0
    3.0289    0.3937   -0.5755 C   0  0  0  0  0  0  0  0  0  0  0  0
    3.4422    0.0346    0.7037 C   0  0  0  0  0  0  0  0  0  0  0  0
    2.5191   -0.3582    1.6693 C   0  0  0  0  0  0  0  0  0  0  0  0
    1.1643   -0.3460    1.3601 C   0  0  0  0  0  0  0  0  0  0  0  0
    0.7264    0.0250    0.0921 C   0  0  0  0  0  0  0  0  0  0  0  0
    0.2272   -0.7343    2.3436 O   0  0  0  0  0  0  0  0  0  0  0  0
   -1.1491   -0.7553    2.1213 C   0  0  0  0  0  0  0  0  0  0  0  0
   -1.9464   -1.0913    2.9878 O   0  0  0  0  0  0  0  0  0  0  0  0
    2.9478   -0.7684    2.8975 O   0  0  0  0  0  0  0  0  0  0  0  0
    4.7721    0.1005    1.0024 O   0  0  0  0  0  0  0  0  0  0  0  0
   -3.7026   -0.6428    1.2349 H   0  0  0  0  0  0  0  0  0  0  0  0
   -5.2556   -0.2322   -0.3816 H   0  0  0  0  0  0  0  0  0  0  0  0
   -3.8799    0.6838   -2.9828 H   0  0  0  0  0  0  0  0  0  0  0  0
    3.7634    0.6905   -1.3214 H   0  0  0  0  0  0  0  0  0  0  0  0
    3.7196   -1.3453    2.7484 H   0  0  0  0  0  0  0  0  0  0  0  0
    4.8404    0.3580    1.9410 H   0  0  0  0  0  0  0  0  0  0  0  0
  1  2  2  0
  2  3  1  0
  3  4  2  0
  4  5  1  0
  5  6  2  0
  6  7  1  0
  5  8  1  0
  4  9  1  0
  9 10  1  0
 10 11  2  0
 10 12  1  0
 12 13  2  0
 13 14  1  0
 14 15  2  0
 15 16  1  0
 16 17  2  0
 16 18  1  0
 18 19  1  0
 19 20  2  0
 15 21  1  0
 14 22  1  0
  6  1  1  0
 19  2  1  0
 17  3  1  0
 17 12  1  0
  1 23  1  0
  7 24  1  0
  8 25  1  0
 13 26  1  0
 21 27  1  0
 22 28  1  0
M  END
$$$$
