
     RDKit          3D

153153  0  0  0  0  0  0  0  0999 V2000
  -15.1657    0.0988   -2.0647 C   0  0  0  0  0  0  0  0  0  0  0  0
  -15.7533    0.4313   -0.7188 C   0  0  0  0  0  0  0  0  0  0  0  0
  -15.8777   -0.4319    0.3083 C   0  0  0  0  0  0  0  0  0  0  0  0
  -16.5195    0.0057    1.5816 C   0  0  0  0  0  0  0  0  0  0  0  0
  -16.6851   -0.7865    2.5061 O   0  0  0  0  0  0  0  0  0  0  0  0
  -16.9421    1.4278    1.7119 C   0  0  0  0  0  0  0  0  0  0  0  0
  -16.7584    2.3019    0.7144 C   0  0  0  0  0  0  0  0  0  0  0  0
  -16.2099    1.8455   -0.5956 C   0  0  0  0  0  0  0  0  0  0  0  0
  -16.1353    2.6031   -1.5603 O   0  0  0  0  0  0  0  0  0  0  0  0
  -17.1707    3.6210    0.8864 O   0  0  0  0  0  0  0  0  0  0  0  0
  -16.1942    4.5832    0.5032 C   0  0  0  0  0  0  0  0  0  0  0  0
  -17.4508    1.8669    2.9313 O   0  0  0  0  0  0  0  0  0  0  0  0
  -18.7539    1.3421    3.1746 C   0  0  0  0  0  0  0  0  0  0  0  0
  -15.4718   -1.8858    0.2580 C   0  0  0  0  0  0  0  0  0  0  0  0
  -13.9932   -2.1890    0.1990 C   0  0  0  0  0  0  0  0  0  0  0  0
  -12.9084   -1.5364    0.6683 C   0  0  0  0  0  0  0  0  0  0  0  0
  -12.9241   -0.2792    1.4940 C   0  0  0  0  0  0  0  0  0  0  0  0
  -11.5268   -2.1256    0.4404 C   0  0  0  0  0  0  0  0  0  0  0  0
  -10.6510   -1.2780   -0.4944 C   0  0  0  0  0  0  0  0  0  0  0  0
   -9.3129   -1.9436   -0.6956 C   0  0  0  0  0  0  0  0  0  0  0  0
   -8.6751   -2.2304   -1.8491 C   0  0  0  0  0  0  0  0  0  0  0  0
   -9.1980   -1.8637   -3.2166 C   0  0  0  0  0  0  0  0  0  0  0  0
   -7.3395   -2.9693   -1.9151 C   0  0  0  0  0  0  0  0  0  0  0  0
   -6.6696   -3.4420   -0.6093 C   0  0  0  0  0  0  0  0  0  0  0  0
   -6.0982   -2.3205    0.2221 C   0  0  0  0  0  0  0  0  0  0  0  0
   -5.6124   -2.4279    1.4759 C   0  0  0  0  0  0  0  0  0  0  0  0
   -5.5620   -3.7358    2.2290 C   0  0  0  0  0  0  0  0  0  0  0  0
   -5.0513   -1.2615    2.2809 C   0  0  0  0  0  0  0  0  0  0  0  0
   -4.9919    0.1420    1.6478 C   0  0  0  0  0  0  0  0  0  0  0  0
   -3.9724    0.2620    0.5427 C   0  0  0  0  0  0  0  0  0  0  0  0
   -4.0916    0.9321   -0.6223 C   0  0  0  0  0  0  0  0  0  0  0  0
   -5.3074    1.7128   -1.0508 C   0  0  0  0  0  0  0  0  0  0  0  0
   -2.9606    0.9076   -1.6407 C   0  0  0  0  0  0  0  0  0  0  0  0
   -2.1214    2.1970   -1.6824 C   0  0  0  0  0  0  0  0  0  0  0  0
   -1.0918    2.2495   -0.5808 C   0  0  0  0  0  0  0  0  0  0  0  0
    0.2346    2.4556   -0.7140 C   0  0  0  0  0  0  0  0  0  0  0  0
    0.9065    2.7734   -2.0248 C   0  0  0  0  0  0  0  0  0  0  0  0
    1.1437    2.4291    0.5054 C   0  0  0  0  0  0  0  0  0  0  0  0
    1.8282    1.0777    0.7668 C   0  0  0  0  0  0  0  0  0  0  0  0
    2.7604    0.6356   -0.3294 C   0  0  0  0  0  0  0  0  0  0  0  0
    4.0885    0.8506   -0.4207 C   0  0  0  0  0  0  0  0  0  0  0  0
    4.8821    1.6443    0.5800 C   0  0  0  0  0  0  0  0  0  0  0  0
    4.8541    0.3485   -1.6335 C   0  0  0  0  0  0  0  0  0  0  0  0
    5.8351   -0.7982   -1.3481 C   0  0  0  0  0  0  0  0  0  0  0  0
    7.1948   -0.3349   -0.8918 C   0  0  0  0  0  0  0  0  0  0  0  0
    8.2394   -0.0026   -1.6772 C   0  0  0  0  0  0  0  0  0  0  0  0
    8.1893    0.0226   -3.1820 C   0  0  0  0  0  0  0  0  0  0  0  0
    9.5584    0.4301   -1.0628 C   0  0  0  0  0  0  0  0  0  0  0  0
   10.6837   -0.5839   -1.3021 C   0  0  0  0  0  0  0  0  0  0  0  0
   11.9827   -0.1089   -0.7048 C   0  0  0  0  0  0  0  0  0  0  0  0
   12.5895   -0.5462    0.4175 C   0  0  0  0  0  0  0  0  0  0  0  0
   12.0043   -1.6010    1.3252 C   0  0  0  0  0  0  0  0  0  0  0  0
   13.9301   -0.0158    0.9237 C   0  0  0  0  0  0  0  0  0  0  0  0
   14.6724    0.9980    0.0405 C   0  0  0  0  0  0  0  0  0  0  0  0
   16.0671    1.4394    0.4154 C   0  0  0  0  0  0  0  0  0  0  0  0
   16.8078    1.2954    1.5336 C   0  0  0  0  0  0  0  0  0  0  0  0
   16.3453    0.6578    2.8121 C   0  0  0  0  0  0  0  0  0  0  0  0
   18.2320    1.8348    1.5672 C   0  0  0  0  0  0  0  0  0  0  0  0
   19.3098    0.7403    1.5846 C   0  0  0  0  0  0  0  0  0  0  0  0
   19.4354    0.0226    0.2652 C   0  0  0  0  0  0  0  0  0  0  0  0
   19.1461   -1.2636   -0.0151 C   0  0  0  0  0  0  0  0  0  0  0  0
   19.3516   -1.8104   -1.4037 C   0  0  0  0  0  0  0  0  0  0  0  0
   18.5966   -2.2648    0.9635 C   0  0  0  0  0  0  0  0  0  0  0  0
  -15.9174    0.2373   -2.8501 H   0  0  0  0  0  0  0  0  0  0  0  0
  -14.8082   -0.9312   -2.1437 H   0  0  0  0  0  0  0  0  0  0  0  0
  -14.3120    0.7518   -2.2799 H   0  0  0  0  0  0  0  0  0  0  0  0
  -16.3668    5.4867    1.0960 H   0  0  0  0  0  0  0  0  0  0  0  0
  -15.1725    4.2415    0.6997 H   0  0  0  0  0  0  0  0  0  0  0  0
  -16.3170    4.8511   -0.5489 H   0  0  0  0  0  0  0  0  0  0  0  0
  -19.1897    1.9009    4.0078 H   0  0  0  0  0  0  0  0  0  0  0  0
  -19.4058    1.4701    2.3037 H   0  0  0  0  0  0  0  0  0  0  0  0
  -18.7120    0.2889    3.4652 H   0  0  0  0  0  0  0  0  0  0  0  0
  -15.8987   -2.4684    1.0816 H   0  0  0  0  0  0  0  0  0  0  0  0
  -15.9345   -2.3197   -0.6401 H   0  0  0  0  0  0  0  0  0  0  0  0
  -13.8085   -3.1311   -0.3231 H   0  0  0  0  0  0  0  0  0  0  0  0
  -12.1382   -0.3109    2.2561 H   0  0  0  0  0  0  0  0  0  0  0  0
  -13.8576   -0.1473    2.0409 H   0  0  0  0  0  0  0  0  0  0  0  0
  -12.7509    0.5980    0.8628 H   0  0  0  0  0  0  0  0  0  0  0  0
  -11.6058   -3.1417    0.0276 H   0  0  0  0  0  0  0  0  0  0  0  0
  -11.0318   -2.2449    1.4147 H   0  0  0  0  0  0  0  0  0  0  0  0
  -10.4766   -0.2899   -0.0529 H   0  0  0  0  0  0  0  0  0  0  0  0
  -11.1840   -1.1205   -1.4354 H   0  0  0  0  0  0  0  0  0  0  0  0
   -8.8408   -2.2214    0.2455 H   0  0  0  0  0  0  0  0  0  0  0  0
   -9.3785   -2.7691   -3.8046 H   0  0  0  0  0  0  0  0  0  0  0  0
   -8.4613   -1.2499   -3.7438 H   0  0  0  0  0  0  0  0  0  0  0  0
  -10.1277   -1.2920   -3.1962 H   0  0  0  0  0  0  0  0  0  0  0  0
   -6.6253   -2.3410   -2.4648 H   0  0  0  0  0  0  0  0  0  0  0  0
   -7.5019   -3.8642   -2.5293 H   0  0  0  0  0  0  0  0  0  0  0  0
   -5.8449   -4.1098   -0.8856 H   0  0  0  0  0  0  0  0  0  0  0  0
   -7.3866   -4.0314   -0.0276 H   0  0  0  0  0  0  0  0  0  0  0  0
   -6.0977   -1.3495   -0.2675 H   0  0  0  0  0  0  0  0  0  0  0  0
   -5.9578   -4.5800    1.6598 H   0  0  0  0  0  0  0  0  0  0  0  0
   -4.5252   -3.9788    2.4844 H   0  0  0  0  0  0  0  0  0  0  0  0
   -6.1412   -3.6594    3.1548 H   0  0  0  0  0  0  0  0  0  0  0  0
   -5.6601   -1.1753    3.1912 H   0  0  0  0  0  0  0  0  0  0  0  0
   -4.0398   -1.5315    2.6133 H   0  0  0  0  0  0  0  0  0  0  0  0
   -4.6973    0.8488    2.4341 H   0  0  0  0  0  0  0  0  0  0  0  0
   -5.9961    0.4302    1.3271 H   0  0  0  0  0  0  0  0  0  0  0  0
   -3.0342   -0.2594    0.7381 H   0  0  0  0  0  0  0  0  0  0  0  0
   -5.6669    1.3467   -2.0185 H   0  0  0  0  0  0  0  0  0  0  0  0
   -5.0606    2.7746   -1.1536 H   0  0  0  0  0  0  0  0  0  0  0  0
   -6.1413    1.6390   -0.3521 H   0  0  0  0  0  0  0  0  0  0  0  0
   -2.3046    0.0439   -1.4679 H   0  0  0  0  0  0  0  0  0  0  0  0
   -3.4024    0.7427   -2.6317 H   0  0  0  0  0  0  0  0  0  0  0  0
   -1.6405    2.2354   -2.6642 H   0  0  0  0  0  0  0  0  0  0  0  0
   -2.7615    3.0828   -1.6101 H   0  0  0  0  0  0  0  0  0  0  0  0
   -1.4892    2.0775    0.4195 H   0  0  0  0  0  0  0  0  0  0  0  0
    1.7469    3.4596   -1.8731 H   0  0  0  0  0  0  0  0  0  0  0  0
    1.2849    1.8635   -2.4986 H   0  0  0  0  0  0  0  0  0  0  0  0
    0.2332    3.2739   -2.7264 H   0  0  0  0  0  0  0  0  0  0  0  0
    0.5576    2.6848    1.3980 H   0  0  0  0  0  0  0  0  0  0  0  0
    1.8960    3.2233    0.4195 H   0  0  0  0  0  0  0  0  0  0  0  0
    1.0650    0.3002    0.9006 H   0  0  0  0  0  0  0  0  0  0  0  0
    2.3619    1.1282    1.7229 H   0  0  0  0  0  0  0  0  0  0  0  0
    2.2670    0.0705   -1.1196 H   0  0  0  0  0  0  0  0  0  0  0  0
    5.4990    0.9796    1.1912 H   0  0  0  0  0  0  0  0  0  0  0  0
    4.2508    2.2282    1.2548 H   0  0  0  0  0  0  0  0  0  0  0  0
    5.5373    2.3580    0.0694 H   0  0  0  0  0  0  0  0  0  0  0  0
    5.3671    1.1940   -2.1104 H   0  0  0  0  0  0  0  0  0  0  0  0
    4.1392   -0.0146   -2.3848 H   0  0  0  0  0  0  0  0  0  0  0  0
    5.9470   -1.4050   -2.2556 H   0  0  0  0  0  0  0  0  0  0  0  0
    5.4219   -1.4816   -0.5961 H   0  0  0  0  0  0  0  0  0  0  0  0
    7.3199   -0.3010    0.1902 H   0  0  0  0  0  0  0  0  0  0  0  0
    8.5661    0.9816   -3.5565 H   0  0  0  0  0  0  0  0  0  0  0  0
    8.8070   -0.7799   -3.5978 H   0  0  0  0  0  0  0  0  0  0  0  0
    7.1771   -0.0948   -3.5799 H   0  0  0  0  0  0  0  0  0  0  0  0
    9.8370    1.4074   -1.4768 H   0  0  0  0  0  0  0  0  0  0  0  0
    9.4418    0.5873    0.0183 H   0  0  0  0  0  0  0  0  0  0  0  0
   10.3940   -1.5693   -0.9239 H   0  0  0  0  0  0  0  0  0  0  0  0
   10.8503   -0.7165   -2.3780 H   0  0  0  0  0  0  0  0  0  0  0  0
   12.4551    0.6746   -1.2946 H   0  0  0  0  0  0  0  0  0  0  0  0
   10.9776   -1.8764    1.0728 H   0  0  0  0  0  0  0  0  0  0  0  0
   12.6174   -2.5083    1.2909 H   0  0  0  0  0  0  0  0  0  0  0  0
   11.9836   -1.2379    2.3589 H   0  0  0  0  0  0  0  0  0  0  0  0
   13.7332    0.4429    1.8989 H   0  0  0  0  0  0  0  0  0  0  0  0
   14.5849   -0.8805    1.0845 H   0  0  0  0  0  0  0  0  0  0  0  0
   14.0618    1.9057   -0.0594 H   0  0  0  0  0  0  0  0  0  0  0  0
   14.7594    0.5663   -0.9656 H   0  0  0  0  0  0  0  0  0  0  0  0
   16.5476    1.9551   -0.4205 H   0  0  0  0  0  0  0  0  0  0  0  0
   17.0287    0.8833    3.6376 H   0  0  0  0  0  0  0  0  0  0  0  0
   16.3031   -0.4301    2.7114 H   0  0  0  0  0  0  0  0  0  0  0  0
   15.3710    1.0446    3.1193 H   0  0  0  0  0  0  0  0  0  0  0  0
   18.4138    2.5081    0.7194 H   0  0  0  0  0  0  0  0  0  0  0  0
   18.3445    2.4601    2.4620 H   0  0  0  0  0  0  0  0  0  0  0  0
   20.2786    1.2156    1.7847 H   0  0  0  0  0  0  0  0  0  0  0  0
   19.1437    0.0538    2.4191 H   0  0  0  0  0  0  0  0  0  0  0  0
   19.8154    0.6493   -0.5418 H   0  0  0  0  0  0  0  0  0  0  0  0
   19.7664   -1.0625   -2.0867 H   0  0  0  0  0  0  0  0  0  0  0  0
   18.3983   -2.1508   -1.8215 H   0  0  0  0  0  0  0  0  0  0  0  0
   20.0444   -2.6572   -1.3796 H   0  0  0  0  0  0  0  0  0  0  0  0
   17.6631   -2.6897    0.5799 H   0  0  0  0  0  0  0  0  0  0  0  0
   19.3144   -3.0804    1.1068 H   0  0  0  0  0  0  0  0  0  0  0  0
   18.3757   -1.8413    1.9454 H   0  0  0  0  0  0  0  0  0  0  0  0
  1  2  1  0
  2  3  2  0
  3  4  1  0
  4  5  2  0
  4  6  1  0
  6  7  2  0
  7  8  1  0
  8  9  2  0
  7 10  1  0
 10 11  1  0
  6 12  1  0
 12 13  1  0
  3 14  1  0
 14 15  1  0
 15 16  2  0
 16 17  1  0
 16 18  1  0
 18 19  1  0
 19 20  1  0
 20 21  2  0
 21 22  1  0
 21 23  1  0
 23 24  1  0
 24 25  1  0
 25 26  2  0
 26 27  1  0
 26 28  1  0
 28 29  1  0
 29 30  1  0
 30 31  2  0
 31 32  1  0
 31 33  1  0
 33 34  1  0
 34 35  1  0
 35 36  2  0
 36 37  1  0
 36 38  1  0
 38 39  1  0
 39 40  1  0
 40 41  2  0
 41 42  1  0
 41 43  1  0
 43 44  1  0
 44 45  1  0
 45 46  2  0
 46 47  1  0
 46 48  1  0
 48 49  1  0
 49 50  1  0
 50 51  2  0
 51 52  1  0
 51 53  1  0
 53 54  1  0
 54 55  1  0
 55 56  2  0
 56 57  1  0
 56 58  1  0
 58 59  1  0
 59 60  1  0
 60 61  2  3
 61 62  1  0
 61 63  1  0
  8  2  1  0
  1 64  1  0
  1 65  1  0
  1 66  1  0
 11 67  1  0
 11 68  1  0
 11 69  1  0
 13 70  1  0
 13 71  1  0
 13 72  1  0
 14 73  1  0
 14 74  1  0
 15 75  1  0
 17 76  1  0
 17 77  1  0
 17 78  1  0
 18 79  1  0
 18 80  1  0
 19 81  1  0
 19 82  1  0
 20 83  1  0
 22 84  1  0
 22 85  1  0
 22 86  1  0
 23 87  1  0
 23 88  1  0
 24 89  1  0
 24 90  1  0
 25 91  1  0
 27 92  1  0
 27 93  1  0
 27 94  1  0
 28 95  1  0
 28 96  1  0
 29 97  1  0
 29 98  1  0
 30 99  1  0
 32100  1  0
 32101  1  0
 32102  1  0
 33103  1  0
 33104  1  0
 34105  1  0
 34106  1  0
 35107  1  0
 37108  1  0
 37109  1  0
 37110  1  0
 38111  1  0
 38112  1  0
 39113  1  0
 39114  1  0
 40115  1  0
 42116  1  0
 42117  1  0
 42118  1  0
 43119  1  0
 43120  1  0
 44121  1  0
 44122  1  0
 45123  1  0
 47124  1  0
 47125  1  0
 47126  1  0
 48127  1  0
 48128  1  0
 49129  1  0
 49130  1  0
 50131  1  0
 52132  1  0
 52133  1  0
 52134  1  0
 53135  1  0
 53136  1  0
 54137  1  0
 54138  1  0
 55139  1  0
 57140  1  0
 57141  1  0
 57142  1  0
 58143  1  0
 58144  1  0
 59145  1  0
 59146  1  0
 60147  1  0
 62148  1  0
 62149  1  0
 62150  1  0
 63151  1  0
 63152  1  0
 63153  1  0
M  END
$$$$
