
     RDKit          3D

101105  0  0  0  0  0  0  0  0999 V2000
    0.8390    3.5062   -5.3012 C   0  0  0  0  0  0  0  0  0  0  0  0
    1.1420    2.0168   -5.4158 C   0  0  1  0  0  0  0  0  0  0  0  0
    2.5553    1.7707   -5.9744 C   0  0  1  0  0  0  0  0  0  0  0  0
    3.1738    0.5422   -5.2967 C   0  0  2  0  0  0  0  0  0  0  0  0
    3.2837    0.8141   -3.7991 C   0  0  2  0  0  0  0  0  0  0  0  0
    1.9513    1.3697   -3.2354 C   0  0  1  0  0  0  0  0  0  0  0  0
    0.8835    1.3497   -4.1703 O   0  0  0  0  0  0  0  0  0  0  0  0
    1.6064    0.5234   -2.1391 O   0  0  0  0  0  0  0  0  0  0  0  0
    0.8966    1.1464   -1.0737 C   0  0  2  0  0  0  0  0  0  0  0  0
    1.5171    0.6415    0.2431 C   0  0  2  0  0  0  0  0  0  0  0  0
    0.9985   -0.7669    0.6216 C   0  0  1  0  0  0  0  0  0  0  0  0
    0.2958   -1.3886   -0.4440 O   0  0  0  0  0  0  0  0  0  0  0  0
   -0.8798   -0.6818   -0.8577 C   0  0  1  0  0  0  0  0  0  0  0  0
   -0.6070    0.8199   -1.1110 C   0  0  1  0  0  0  0  0  0  0  0  0
   -1.2280    1.5936   -0.0408 O   0  0  0  0  0  0  0  0  0  0  0  0
   -2.5006    2.0055   -0.2716 C   0  0  0  0  0  0  0  0  0  0  0  0
   -3.1503    1.7725   -1.2801 O   0  0  0  0  0  0  0  0  0  0  0  0
   -3.0242    2.8388    0.8307 C   0  0  0  0  0  0  0  0  0  0  0  0
   -2.4692    2.8908    2.0558 C   0  0  0  0  0  0  0  0  0  0  0  0
   -2.9318    3.7004    3.2017 C   0  0  0  0  0  0  0  0  0  0  0  0
   -4.0053    4.6043    3.1430 C   0  0  0  0  0  0  0  0  0  0  0  0
   -4.3577    5.3364    4.2832 C   0  0  0  0  0  0  0  0  0  0  0  0
   -3.6486    5.1844    5.4722 C   0  0  0  0  0  0  0  0  0  0  0  0
   -2.5858    4.3056    5.5451 C   0  0  0  0  0  0  0  0  0  0  0  0
   -2.2197    3.5720    4.4117 C   0  0  0  0  0  0  0  0  0  0  0  0
   -3.9933    5.9061    6.5746 O   0  0  0  0  0  0  0  0  0  0  0  0
   -5.3899    6.2324    4.2700 O   0  0  0  0  0  0  0  0  0  0  0  0
   -1.4112   -1.3480   -2.1391 C   0  0  0  0  0  0  0  0  0  0  0  0
   -1.6928   -2.7378   -2.0108 O   0  0  0  0  0  0  0  0  0  0  0  0
   -2.7840   -3.0476   -1.1409 C   0  0  1  0  0  0  0  0  0  0  0  0
   -3.5993   -4.1652   -1.8322 C   0  0  1  0  0  0  0  0  0  0  0  0
   -4.5037   -4.9324   -0.8385 C   0  0  2  0  0  0  0  0  0  0  0  0
   -4.6292   -4.1994    0.5078 C   0  0  1  0  0  0  0  0  0  0  0  0
   -3.2525   -3.8229    1.0846 C   0  0  2  0  0  0  0  0  0  0  0  0
   -2.2575   -3.5188    0.0965 O   0  0  0  0  0  0  0  0  0  0  0  0
   -2.6750   -4.9352    1.9736 C   0  0  0  0  0  0  0  0  0  0  0  0
   -3.5034   -5.1623    3.1105 O   0  0  0  0  0  0  0  0  0  0  0  0
   -5.3979   -2.9948    0.2981 O   0  0  0  0  0  0  0  0  0  0  0  0
   -4.0037   -6.2544   -0.6165 O   0  0  0  0  0  0  0  0  0  0  0  0
   -4.4022   -3.5885   -2.8811 O   0  0  0  0  0  0  0  0  0  0  0  0
    2.1267   -1.5954    0.9277 O   0  0  0  0  0  0  0  0  0  0  0  0
    2.1225   -2.1365    2.2435 C   0  0  0  0  0  0  0  0  0  0  0  0
    2.7317   -1.1642    3.2598 C   0  0  0  0  0  0  0  0  0  0  0  0
    4.2137   -0.9561    3.0379 C   0  0  0  0  0  0  0  0  0  0  0  0
    4.6909    0.2231    2.4484 C   0  0  0  0  0  0  0  0  0  0  0  0
    6.0498    0.3780    2.2223 C   0  0  0  0  0  0  0  0  0  0  0  0
    6.9539   -0.6124    2.5902 C   0  0  0  0  0  0  0  0  0  0  0  0
    6.5082   -1.7805    3.1946 C   0  0  0  0  0  0  0  0  0  0  0  0
    5.1341   -1.9507    3.4244 C   0  0  0  0  0  0  0  0  0  0  0  0
    8.2831   -0.3930    2.3302 O   0  0  0  0  0  0  0  0  0  0  0  0
    6.4954    1.5283    1.6245 O   0  0  0  0  0  0  0  0  0  0  0  0
    1.2413    1.5760    1.3089 O   0  0  0  0  0  0  0  0  0  0  0  0
    4.3437    1.7807   -3.5714 O   0  0  0  0  0  0  0  0  0  0  0  0
    4.4682    0.2680   -5.8594 O   0  0  0  0  0  0  0  0  0  0  0  0
    2.5212    1.6072   -7.3974 O   0  0  0  0  0  0  0  0  0  0  0  0
    0.9948    4.0131   -6.2600 H   0  0  0  0  0  0  0  0  0  0  0  0
   -0.1980    3.6625   -4.9855 H   0  0  0  0  0  0  0  0  0  0  0  0
    1.4735    3.9842   -4.5462 H   0  0  0  0  0  0  0  0  0  0  0  0
    0.4141    1.5968   -6.1179 H   0  0  0  0  0  0  0  0  0  0  0  0
    3.1988    2.6445   -5.8041 H   0  0  0  0  0  0  0  0  0  0  0  0
    2.5527   -0.3448   -5.4827 H   0  0  0  0  0  0  0  0  0  0  0  0
    3.6074   -0.1004   -3.2808 H   0  0  0  0  0  0  0  0  0  0  0  0
    2.1040    2.3968   -2.8715 H   0  0  0  0  0  0  0  0  0  0  0  0
    1.0192    2.2367   -1.1056 H   0  0  0  0  0  0  0  0  0  0  0  0
    2.6086    0.6178    0.1356 H   0  0  0  0  0  0  0  0  0  0  0  0
    0.3255   -0.6982    1.4867 H   0  0  0  0  0  0  0  0  0  0  0  0
   -1.6234   -0.8054   -0.0610 H   0  0  0  0  0  0  0  0  0  0  0  0
   -1.0138    1.1376   -2.0854 H   0  0  0  0  0  0  0  0  0  0  0  0
   -3.9188    3.3828    0.5620 H   0  0  0  0  0  0  0  0  0  0  0  0
   -1.5963    2.2804    2.2755 H   0  0  0  0  0  0  0  0  0  0  0  0
   -4.5727    4.7450    2.2317 H   0  0  0  0  0  0  0  0  0  0  0  0
   -2.0325    4.1975    6.4761 H   0  0  0  0  0  0  0  0  0  0  0  0
   -1.3685    2.9024    4.4908 H   0  0  0  0  0  0  0  0  0  0  0  0
   -4.7239    6.4965    6.2691 H   0  0  0  0  0  0  0  0  0  0  0  0
   -5.7109    6.3236    3.3665 H   0  0  0  0  0  0  0  0  0  0  0  0
   -0.6505   -1.2691   -2.9237 H   0  0  0  0  0  0  0  0  0  0  0  0
   -2.3084   -0.8336   -2.5060 H   0  0  0  0  0  0  0  0  0  0  0  0
   -3.3948   -2.1496   -0.9859 H   0  0  0  0  0  0  0  0  0  0  0  0
   -2.9036   -4.8629   -2.3213 H   0  0  0  0  0  0  0  0  0  0  0  0
   -5.5072   -5.0570   -1.2730 H   0  0  0  0  0  0  0  0  0  0  0  0
   -5.1999   -4.8108    1.2157 H   0  0  0  0  0  0  0  0  0  0  0  0
   -3.3676   -2.9303    1.7089 H   0  0  0  0  0  0  0  0  0  0  0  0
   -1.6729   -4.6554    2.3238 H   0  0  0  0  0  0  0  0  0  0  0  0
   -2.5654   -5.8739    1.4226 H   0  0  0  0  0  0  0  0  0  0  0  0
   -3.0724   -5.8650    3.6235 H   0  0  0  0  0  0  0  0  0  0  0  0
   -5.9238   -2.8593    1.1049 H   0  0  0  0  0  0  0  0  0  0  0  0
   -3.9474   -6.6997   -1.4805 H   0  0  0  0  0  0  0  0  0  0  0  0
   -4.6160   -4.3026   -3.5134 H   0  0  0  0  0  0  0  0  0  0  0  0
    2.7077   -3.0672    2.2089 H   0  0  0  0  0  0  0  0  0  0  0  0
    1.1022   -2.4228    2.5318 H   0  0  0  0  0  0  0  0  0  0  0  0
    2.2173   -0.1955    3.2166 H   0  0  0  0  0  0  0  0  0  0  0  0
    2.5812   -1.5587    4.2686 H   0  0  0  0  0  0  0  0  0  0  0  0
    4.0025    1.0146    2.1396 H   0  0  0  0  0  0  0  0  0  0  0  0
    7.1931   -2.5668    3.4946 H   0  0  0  0  0  0  0  0  0  0  0  0
    4.7842   -2.8664    3.8880 H   0  0  0  0  0  0  0  0  0  0  0  0
    8.7814   -1.1684    2.6394 H   0  0  0  0  0  0  0  0  0  0  0  0
    7.4653    1.3964    1.5536 H   0  0  0  0  0  0  0  0  0  0  0  0
    0.2936    1.8018    1.2500 H   0  0  0  0  0  0  0  0  0  0  0  0
    4.6066    1.6671   -2.6364 H   0  0  0  0  0  0  0  0  0  0  0  0
    5.0075    1.0669   -5.6989 H   0  0  0  0  0  0  0  0  0  0  0  0
    2.9239    0.7271   -7.5828 H   0  0  0  0  0  0  0  0  0  0  0  0
  1  2  1  0
  2  3  1  0
  3  4  1  0
  4  5  1  0
  5  6  1  0
  6  7  1  0
  6  8  1  0
  8  9  1  0
  9 10  1  0
 10 11  1  0
 11 12  1  0
 12 13  1  0
 13 14  1  0
 14 15  1  0
 15 16  1  0
 16 17  2  0
 16 18  1  0
 18 19  2  0
 19 20  1  0
 20 21  2  0
 21 22  1  0
 22 23  2  0
 23 24  1  0
 24 25  2  0
 23 26  1  0
 22 27  1  0
 13 28  1  0
 28 29  1  0
 29 30  1  0
 30 31  1  0
 31 32  1  0
 32 33  1  0
 33 34  1  0
 34 35  1  0
 34 36  1  0
 36 37  1  0
 33 38  1  0
 32 39  1  0
 31 40  1  0
 11 41  1  0
 41 42  1  0
 42 43  1  0
 43 44  1  0
 44 45  2  0
 45 46  1  0
 46 47  2  0
 47 48  1  0
 48 49  2  0
 47 50  1  0
 46 51  1  0
 10 52  1  0
  5 53  1  0
  4 54  1  0
  3 55  1  0
  7  2  1  0
 14  9  1  0
 25 20  1  0
 35 30  1  0
 49 44  1  0
  1 56  1  0
  1 57  1  0
  1 58  1  0
  2 59  1  6
  3 60  1  6
  4 61  1  1
  5 62  1  1
  6 63  1  1
  9 64  1  6
 10 65  1  6
 11 66  1  1
 13 67  1  1
 14 68  1  6
 18 69  1  0
 19 70  1  0
 21 71  1  0
 24 72  1  0
 25 73  1  0
 26 74  1  0
 27 75  1  0
 28 76  1  0
 28 77  1  0
 30 78  1  1
 31 79  1  6
 32 80  1  6
 33 81  1  1
 34 82  1  1
 36 83  1  0
 36 84  1  0
 37 85  1  0
 38 86  1  0
 39 87  1  0
 40 88  1  0
 42 89  1  0
 42 90  1  0
 43 91  1  0
 43 92  1  0
 45 93  1  0
 48 94  1  0
 49 95  1  0
 50 96  1  0
 51 97  1  0
 52 98  1  0
 53 99  1  0
 54100  1  0
 55101  1  0
M  END
$$$$
