
     RDKit          3D

 33 36  0  0  0  0  0  0  0  0999 V2000
    6.1780    0.3799    0.0766 C   0  0  0  0  0  0  0  0  0  0  0  0
    5.2627   -0.5142    0.6975 O   0  0  0  0  0  0  0  0  0  0  0  0
    3.9310   -0.3016    0.4700 C   0  0  0  0  0  0  0  0  0  0  0  0
    3.3875    0.7101   -0.3354 C   0  0  0  0  0  0  0  0  0  0  0  0
    2.0012    0.8281   -0.4825 C   0  0  0  0  0  0  0  0  0  0  0  0
    1.1474   -0.0590    0.1684 C   0  0  0  0  0  0  0  0  0  0  0  0
    1.7050   -1.0678    0.9661 C   0  0  0  0  0  0  0  0  0  0  0  0
    3.0817   -1.1989    1.1226 C   0  0  0  0  0  0  0  0  0  0  0  0
    0.8701   -2.0052    1.6535 O   0  0  0  0  0  0  0  0  0  0  0  0
   -0.5493   -1.9920    1.5892 C   0  0  0  0  0  0  0  0  0  0  0  0
   -1.2221   -2.8183    2.1941 O   0  0  0  0  0  0  0  0  0  0  0  0
   -1.1107   -0.9445    0.7706 C   0  0  0  0  0  0  0  0  0  0  0  0
   -0.2877   -0.0592    0.1234 C   0  0  0  0  0  0  0  0  0  0  0  0
   -0.9777    0.8537   -0.5956 O   0  0  0  0  0  0  0  0  0  0  0  0
   -2.3000    0.5504   -0.4088 C   0  0  0  0  0  0  0  0  0  0  0  0
   -3.3698    1.2488   -0.9732 C   0  0  0  0  0  0  0  0  0  0  0  0
   -4.6365    0.7628   -0.6582 C   0  0  0  0  0  0  0  0  0  0  0  0
   -4.8083   -0.3465    0.1718 C   0  0  0  0  0  0  0  0  0  0  0  0
   -3.7286   -1.0254    0.7339 C   0  0  0  0  0  0  0  0  0  0  0  0
   -2.4349   -0.5616    0.4324 C   0  0  0  0  0  0  0  0  0  0  0  0
   -6.0711   -0.7934    0.4477 O   0  0  0  0  0  0  0  0  0  0  0  0
   -5.7691    1.3574   -1.1499 O   0  0  0  0  0  0  0  0  0  0  0  0
    1.5489    1.8377   -1.2855 O   0  0  0  0  0  0  0  0  0  0  0  0
    6.0272    1.4084    0.4226 H   0  0  0  0  0  0  0  0  0  0  0  0
    7.1876    0.0768    0.3661 H   0  0  0  0  0  0  0  0  0  0  0  0
    6.1108    0.3165   -1.0146 H   0  0  0  0  0  0  0  0  0  0  0  0
    4.0174    1.4207   -0.8638 H   0  0  0  0  0  0  0  0  0  0  0  0
    3.4941   -1.9847    1.7479 H   0  0  0  0  0  0  0  0  0  0  0  0
   -3.1981    2.1015   -1.6164 H   0  0  0  0  0  0  0  0  0  0  0  0
   -3.8901   -1.8860    1.3784 H   0  0  0  0  0  0  0  0  0  0  0  0
   -6.6611   -0.2331   -0.1028 H   0  0  0  0  0  0  0  0  0  0  0  0
   -5.5082    2.1678   -1.6301 H   0  0  0  0  0  0  0  0  0  0  0  0
    0.5728    1.7709   -1.3347 H   0  0  0  0  0  0  0  0  0  0  0  0
  1  2  1  0
  2  3  1  0
  3  4  2  0
  4  5  1  0
  5  6  2  0
  6  7  1  0
  7  8  2  0
  7  9  1  0
  9 10  1  0
 10 11  2  0
 10 12  1  0
 12 13  2  0
 13 14  1  0
 14 15  1  0
 15 16  2  0
 16 17  1  0
 17 18  2  0
 18 19  1  0
 19 20  2  0
 18 21  1  0
 17 22  1  0
  5 23  1  0
  8  3  1  0
 13  6  1  0
 20 12  1  0
 20 15  1  0
  1 24  1  0
  1 25  1  0
  1 26  1  0
  4 27  1  0
  8 28  1  0
 16 29  1  0
 19 30  1  0
 21 31  1  0
 22 32  1  0
 23 33  1  0
M  END
$$$$
