
     RDKit          3D

 65 69  0  0  0  0  0  0  0  0999 V2000
   -6.3077    2.7836    0.0074 C   0  0  0  0  0  0  0  0  0  0  0  0
   -5.1479    1.8322    0.2594 C   0  0  0  0  0  0  0  0  0  0  0  0
   -3.8304    2.5926    0.4328 C   0  0  0  0  0  0  0  0  0  0  0  0
   -2.6326    1.6840    0.7004 C   0  0  0  0  0  0  0  0  0  0  0  0
   -2.8632    0.8594    1.8335 O   0  0  0  0  0  0  0  0  0  0  0  0
   -2.2112   -0.3783    1.5595 C   0  0  2  0  0  0  0  0  0  0  0  0
   -0.7719   -0.3721    2.1186 C   0  0  0  0  0  0  0  0  0  0  0  0
    0.1020   -0.1571    0.8845 C   0  0  1  0  0  0  0  0  0  0  0  0
    1.6028   -0.4709    0.9713 C   0  0  2  0  0  0  0  0  0  0  0  0
    2.2464    0.2886    2.1461 C   0  0  0  0  0  0  0  0  0  0  0  0
    3.7608    0.1234    2.1851 C   0  0  0  0  0  0  0  0  0  0  0  0
    4.3593    0.5108    0.8575 C   0  0  0  0  0  0  0  0  0  0  0  0
    5.2559    1.5104    0.7812 C   0  0  0  0  0  0  0  0  0  0  0  0
    5.8160    1.9583   -0.5096 C   0  0  0  0  0  0  0  0  0  0  0  0
    6.6288    2.8719   -0.5695 O   0  0  0  0  0  0  0  0  0  0  0  0
    5.3482    1.2672   -1.7251 C   0  0  0  0  0  0  0  0  0  0  0  0
    4.4564    0.2705   -1.6510 C   0  0  0  0  0  0  0  0  0  0  0  0
    3.8376   -0.2635   -0.3631 C   0  0  2  0  0  0  0  0  0  0  0  0
    2.2713   -0.0774   -0.3924 C   0  0  1  0  0  0  0  0  0  0  0  0
    1.5334   -0.7150   -1.6074 C   0  0  2  0  0  0  0  0  0  0  0  0
   -0.0008   -0.5280   -1.5673 C   0  0  0  0  0  0  0  0  0  0  0  0
   -0.6378   -0.9425   -0.2241 C   0  0  2  0  0  0  0  0  0  0  0  0
   -2.1046   -0.4593    0.0250 C   0  0  2  0  0  0  0  0  0  0  0  0
   -2.3193    0.8810   -0.4399 O   0  0  0  0  0  0  0  0  0  0  0  0
   -3.1785   -1.3695   -0.5881 C   0  0  0  0  0  0  0  0  0  0  0  0
   -3.7270   -2.2792    0.0429 O   0  0  0  0  0  0  0  0  0  0  0  0
   -3.5412   -1.1374   -2.0507 C   0  0  0  0  0  0  0  0  0  0  0  0
   -4.1968   -2.2708   -2.6048 O   0  0  0  0  0  0  0  0  0  0  0  0
   -0.5587   -2.4816   -0.0319 C   0  0  0  0  0  0  0  0  0  0  0  0
    1.8330   -2.0987   -1.7170 O   0  0  0  0  0  0  0  0  0  0  0  0
    4.3016   -1.7319   -0.2373 C   0  0  0  0  0  0  0  0  0  0  0  0
   -6.4366    3.4759    0.8454 H   0  0  0  0  0  0  0  0  0  0  0  0
   -7.2389    2.2215   -0.1149 H   0  0  0  0  0  0  0  0  0  0  0  0
   -6.1433    3.3704   -0.9019 H   0  0  0  0  0  0  0  0  0  0  0  0
   -5.3641    1.2388    1.1550 H   0  0  0  0  0  0  0  0  0  0  0  0
   -5.0741    1.1369   -0.5810 H   0  0  0  0  0  0  0  0  0  0  0  0
   -3.9415    3.2853    1.2762 H   0  0  0  0  0  0  0  0  0  0  0  0
   -3.6382    3.1867   -0.4686 H   0  0  0  0  0  0  0  0  0  0  0  0
   -1.7616    2.3160    0.9085 H   0  0  0  0  0  0  0  0  0  0  0  0
   -2.7837   -1.1809    2.0336 H   0  0  0  0  0  0  0  0  0  0  0  0
   -0.6219    0.4123    2.8673 H   0  0  0  0  0  0  0  0  0  0  0  0
   -0.5417   -1.3377    2.5827 H   0  0  0  0  0  0  0  0  0  0  0  0
    0.0414    0.9167    0.6498 H   0  0  0  0  0  0  0  0  0  0  0  0
    1.7465   -1.5397    1.1577 H   0  0  0  0  0  0  0  0  0  0  0  0
    2.0010    1.3568    2.0762 H   0  0  0  0  0  0  0  0  0  0  0  0
    1.8302   -0.0681    3.0956 H   0  0  0  0  0  0  0  0  0  0  0  0
    4.1640    0.7378    2.9994 H   0  0  0  0  0  0  0  0  0  0  0  0
    4.0232   -0.9129    2.4261 H   0  0  0  0  0  0  0  0  0  0  0  0
    5.6055    2.0550    1.6509 H   0  0  0  0  0  0  0  0  0  0  0  0
    5.7744    1.6005   -2.6633 H   0  0  0  0  0  0  0  0  0  0  0  0
    4.1758   -0.2248   -2.5783 H   0  0  0  0  0  0  0  0  0  0  0  0
    2.0984    1.0070   -0.5037 H   0  0  0  0  0  0  0  0  0  0  0  0
    1.8915   -0.2439   -2.5297 H   0  0  0  0  0  0  0  0  0  0  0  0
   -0.4520   -1.1056   -2.3815 H   0  0  0  0  0  0  0  0  0  0  0  0
   -0.2135    0.5289   -1.7696 H   0  0  0  0  0  0  0  0  0  0  0  0
   -4.2106   -0.2787   -2.1280 H   0  0  0  0  0  0  0  0  0  0  0  0
   -2.6456   -0.9521   -2.6429 H   0  0  0  0  0  0  0  0  0  0  0  0
   -4.7128   -2.6695   -1.8751 H   0  0  0  0  0  0  0  0  0  0  0  0
   -1.1097   -2.8208    0.8517 H   0  0  0  0  0  0  0  0  0  0  0  0
   -0.9868   -3.0005   -0.8975 H   0  0  0  0  0  0  0  0  0  0  0  0
    0.4605   -2.8524    0.0890 H   0  0  0  0  0  0  0  0  0  0  0  0
    1.4288   -2.4321   -2.5376 H   0  0  0  0  0  0  0  0  0  0  0  0
    4.1878   -2.2871   -1.1745 H   0  0  0  0  0  0  0  0  0  0  0  0
    3.7562   -2.2818    0.5355 H   0  0  0  0  0  0  0  0  0  0  0  0
    5.3674   -1.7878    0.0213 H   0  0  0  0  0  0  0  0  0  0  0  0
  1  2  1  0
  2  3  1  0
  3  4  1  0
  4  5  1  0
  5  6  1  0
  6  7  1  0
  7  8  1  0
  8  9  1  0
  9 10  1  0
 10 11  1  0
 11 12  1  0
 12 13  2  0
 13 14  1  0
 14 15  2  0
 14 16  1  0
 16 17  2  0
 17 18  1  0
 18 19  1  0
 19 20  1  0
 20 21  1  0
 21 22  1  0
 22 23  1  0
 23 24  1  0
 23 25  1  6
 25 26  2  0
 25 27  1  0
 27 28  1  0
 22 29  1  1
 20 30  1  0
 18 31  1  1
 24  4  1  0
 23  6  1  0
 22  8  1  0
 19  9  1  0
 18 12  1  0
  1 32  1  0
  1 33  1  0
  1 34  1  0
  2 35  1  0
  2 36  1  0
  3 37  1  0
  3 38  1  0
  4 39  1  0
  6 40  1  1
  7 41  1  0
  7 42  1  0
  8 43  1  6
  9 44  1  1
 10 45  1  0
 10 46  1  0
 11 47  1  0
 11 48  1  0
 13 49  1  0
 16 50  1  0
 17 51  1  0
 19 52  1  6
 20 53  1  6
 21 54  1  0
 21 55  1  0
 27 56  1  0
 27 57  1  0
 28 58  1  0
 29 59  1  0
 29 60  1  0
 29 61  1  0
 30 62  1  0
 31 63  1  0
 31 64  1  0
 31 65  1  0
M  END
$$$$
