
     RDKit          3D

 50 53  0  0  0  0  0  0  0  0999 V2000
    4.1746   -2.0581    0.0162 C   0  0  0  0  0  0  0  0  0  0  0  0
    5.3628   -2.7022   -0.3369 C   0  0  0  0  0  0  0  0  0  0  0  0
    6.3287   -2.0177   -1.0652 C   0  0  0  0  0  0  0  0  0  0  0  0
    6.1283   -0.6984   -1.4463 C   0  0  0  0  0  0  0  0  0  0  0  0
    4.9359   -0.0547   -1.0953 C   0  0  0  0  0  0  0  0  0  0  0  0
    3.9424   -0.7240   -0.3629 C   0  0  0  0  0  0  0  0  0  0  0  0
    2.6915   -0.0294    0.0096 C   0  0  0  0  0  0  0  0  0  0  0  0
    1.4961   -0.6090   -0.1870 C   0  0  0  0  0  0  0  0  0  0  0  0
    0.2653   -0.0707    0.0930 O   0  0  0  0  0  0  0  0  0  0  0  0
    0.1996    1.1673    0.6923 C   0  0  0  0  0  0  0  0  0  0  0  0
    1.3592    1.9133    0.9282 C   0  0  0  0  0  0  0  0  0  0  0  0
    2.6767    1.3492    0.5789 C   0  0  0  0  0  0  0  0  0  0  0  0
    3.6993    2.0049    0.7568 O   0  0  0  0  0  0  0  0  0  0  0  0
    1.2823    3.1918    1.4904 C   0  0  0  0  0  0  0  0  0  0  0  0
    0.0379    3.7257    1.8143 C   0  0  0  0  0  0  0  0  0  0  0  0
   -1.1194    2.9724    1.5920 C   0  0  0  0  0  0  0  0  0  0  0  0
   -1.0684    1.6795    1.0426 C   0  0  0  0  0  0  0  0  0  0  0  0
   -2.3577    0.9021    0.8035 C   0  0  1  0  0  0  0  0  0  0  0  0
   -2.8038    1.0065   -0.6755 C   0  0  1  0  0  0  0  0  0  0  0  0
   -3.7595   -0.1484   -1.0667 C   0  0  2  0  0  0  0  0  0  0  0  0
   -4.4054   -0.8289    0.1551 C   0  0  1  0  0  0  0  0  0  0  0  0
   -3.3587   -1.2287    1.2215 C   0  0  2  0  0  0  0  0  0  0  0  0
   -2.1463   -0.4680    1.1627 O   0  0  0  0  0  0  0  0  0  0  0  0
   -2.9791   -2.7136    1.1138 C   0  0  0  0  0  0  0  0  0  0  0  0
   -4.0845   -3.5629    1.4144 O   0  0  0  0  0  0  0  0  0  0  0  0
   -5.3450    0.0746    0.7595 O   0  0  0  0  0  0  0  0  0  0  0  0
   -3.0669   -1.1363   -1.8424 O   0  0  0  0  0  0  0  0  0  0  0  0
   -3.4461    2.2721   -0.9170 O   0  0  0  0  0  0  0  0  0  0  0  0
   -2.3342    3.5055    1.9230 O   0  0  0  0  0  0  0  0  0  0  0  0
    7.4787   -2.6814   -1.3743 O   0  0  0  0  0  0  0  0  0  0  0  0
    3.4407   -2.6069    0.6058 H   0  0  0  0  0  0  0  0  0  0  0  0
    5.5393   -3.7315   -0.0360 H   0  0  0  0  0  0  0  0  0  0  0  0
    6.8779   -0.1486   -2.0083 H   0  0  0  0  0  0  0  0  0  0  0  0
    4.7949    0.9851   -1.3908 H   0  0  0  0  0  0  0  0  0  0  0  0
    1.3593   -1.5972   -0.6136 H   0  0  0  0  0  0  0  0  0  0  0  0
    2.1869    3.7683    1.6704 H   0  0  0  0  0  0  0  0  0  0  0  0
   -0.0116    4.7215    2.2534 H   0  0  0  0  0  0  0  0  0  0  0  0
   -3.1291    1.3021    1.4720 H   0  0  0  0  0  0  0  0  0  0  0  0
   -1.9273    0.9799   -1.3366 H   0  0  0  0  0  0  0  0  0  0  0  0
   -4.5573    0.2461   -1.7070 H   0  0  0  0  0  0  0  0  0  0  0  0
   -4.9775   -1.7070   -0.1578 H   0  0  0  0  0  0  0  0  0  0  0  0
   -3.7898   -1.0651    2.2172 H   0  0  0  0  0  0  0  0  0  0  0  0
   -2.1598   -2.9570    1.8009 H   0  0  0  0  0  0  0  0  0  0  0  0
   -2.6190   -2.9589    0.1087 H   0  0  0  0  0  0  0  0  0  0  0  0
   -4.2608   -3.4695    2.3694 H   0  0  0  0  0  0  0  0  0  0  0  0
   -6.1392    0.0895    0.1929 H   0  0  0  0  0  0  0  0  0  0  0  0
   -2.7906   -0.7218   -2.6792 H   0  0  0  0  0  0  0  0  0  0  0  0
   -3.4629    2.4269   -1.8764 H   0  0  0  0  0  0  0  0  0  0  0  0
   -2.2337    4.4663    2.0579 H   0  0  0  0  0  0  0  0  0  0  0  0
    8.0753   -2.0552   -1.8162 H   0  0  0  0  0  0  0  0  0  0  0  0
  1  2  2  0
  2  3  1  0
  3  4  2  0
  4  5  1  0
  5  6  2  0
  6  7  1  0
  7  8  2  0
  8  9  1  0
  9 10  1  0
 10 11  2  0
 11 12  1  0
 12 13  2  0
 11 14  1  0
 14 15  2  0
 15 16  1  0
 16 17  2  0
 17 18  1  0
 18 19  1  0
 19 20  1  0
 20 21  1  0
 21 22  1  0
 22 23  1  0
 22 24  1  0
 24 25  1  0
 21 26  1  0
 20 27  1  0
 19 28  1  0
 16 29  1  0
  3 30  1  0
  6  1  1  0
 12  7  1  0
 17 10  1  0
 23 18  1  0
  1 31  1  0
  2 32  1  0
  4 33  1  0
  5 34  1  0
  8 35  1  0
 14 36  1  0
 15 37  1  0
 18 38  1  1
 19 39  1  6
 20 40  1  6
 21 41  1  6
 22 42  1  1
 24 43  1  0
 24 44  1  0
 25 45  1  0
 26 46  1  0
 27 47  1  0
 28 48  1  0
 29 49  1  0
 30 50  1  0
M  END
$$$$
