
     RDKit          3D

 80 83  0  0  0  0  0  0  0  0999 V2000
    3.9189   -3.0587   -2.4168 C   0  0  0  0  0  0  0  0  0  0  0  0
    2.6183   -3.4490   -1.7255 C   0  0  1  0  0  0  0  0  0  0  0  0
    2.8489   -4.3828   -0.5344 C   0  0  1  0  0  0  0  0  0  0  0  0
    1.4953   -4.8288    0.0364 C   0  0  2  0  0  0  0  0  0  0  0  0
    0.3810   -3.7977   -0.1919 C   0  0  2  0  0  0  0  0  0  0  0  0
    0.9705   -2.3755   -0.2979 C   0  0  1  0  0  0  0  0  0  0  0  0
    1.9662   -2.2409   -1.3157 O   0  0  0  0  0  0  0  0  0  0  0  0
   -0.0788   -1.4613   -0.6253 O   0  0  0  0  0  0  0  0  0  0  0  0
   -0.6653   -0.7902    0.5014 C   0  0  2  0  0  0  0  0  0  0  0  0
   -2.1903   -0.8792    0.3330 C   0  0  2  0  0  0  0  0  0  0  0  0
   -2.9110    0.3957    0.8160 C   0  0  1  0  0  0  0  0  0  0  0  0
   -2.2562    0.9185    1.9701 O   0  0  0  0  0  0  0  0  0  0  0  0
   -0.8883    1.3344    1.7688 C   0  0  1  0  0  0  0  0  0  0  0  0
   -0.1991    0.6686    0.5604 C   0  0  1  0  0  0  0  0  0  0  0  0
    1.2393    0.6655    0.7287 O   0  0  0  0  0  0  0  0  0  0  0  0
    1.9098    1.6678    0.1124 C   0  0  0  0  0  0  0  0  0  0  0  0
    1.4041    2.6842   -0.3470 O   0  0  0  0  0  0  0  0  0  0  0  0
    3.3597    1.4017    0.0291 C   0  0  0  0  0  0  0  0  0  0  0  0
    3.9311    0.2481    0.4024 C   0  0  0  0  0  0  0  0  0  0  0  0
    5.3580   -0.0565    0.2378 C   0  0  0  0  0  0  0  0  0  0  0  0
    5.9942   -0.8489    1.2021 C   0  0  0  0  0  0  0  0  0  0  0  0
    7.3274   -1.2007    1.0304 C   0  0  0  0  0  0  0  0  0  0  0  0
    8.0386   -0.7892   -0.0943 C   0  0  0  0  0  0  0  0  0  0  0  0
    7.4212   -0.0136   -1.0658 C   0  0  0  0  0  0  0  0  0  0  0  0
    6.0784    0.3463   -0.8992 C   0  0  0  0  0  0  0  0  0  0  0  0
    9.3434   -1.1838   -0.2022 O   0  0  0  0  0  0  0  0  0  0  0  0
    7.9415   -1.9708    1.9786 O   0  0  0  0  0  0  0  0  0  0  0  0
   -0.7892    2.8694    1.8104 C   0  0  0  0  0  0  0  0  0  0  0  0
   -1.0559    3.4886    0.5582 O   0  0  0  0  0  0  0  0  0  0  0  0
   -2.9651    1.3349   -0.2493 O   0  0  0  0  0  0  0  0  0  0  0  0
   -3.9643    2.3406   -0.0655 C   0  0  0  0  0  0  0  0  0  0  0  0
   -5.2919    1.8713   -0.6624 C   0  0  0  0  0  0  0  0  0  0  0  0
   -6.4039    2.8657   -0.4576 C   0  0  0  0  0  0  0  0  0  0  0  0
   -6.6623    3.8530   -1.4225 C   0  0  0  0  0  0  0  0  0  0  0  0
   -7.6898    4.7652   -1.2102 C   0  0  0  0  0  0  0  0  0  0  0  0
   -8.4577    4.7052   -0.0494 C   0  0  0  0  0  0  0  0  0  0  0  0
   -8.2100    3.7417    0.9168 C   0  0  0  0  0  0  0  0  0  0  0  0
   -7.1802    2.8218    0.7127 C   0  0  0  0  0  0  0  0  0  0  0  0
   -9.4618    5.6066    0.1529 O   0  0  0  0  0  0  0  0  0  0  0  0
   -7.9811    5.7489   -2.1148 O   0  0  0  0  0  0  0  0  0  0  0  0
   -2.6324   -2.0469    1.0644 O   0  0  0  0  0  0  0  0  0  0  0  0
   -0.5823   -3.9420    0.8666 O   0  0  0  0  0  0  0  0  0  0  0  0
    1.6582   -5.0965    1.4407 O   0  0  0  0  0  0  0  0  0  0  0  0
    3.6079   -5.5373   -0.8954 O   0  0  0  0  0  0  0  0  0  0  0  0
    4.4300   -3.9292   -2.8394 H   0  0  0  0  0  0  0  0  0  0  0  0
    3.7209   -2.3498   -3.2265 H   0  0  0  0  0  0  0  0  0  0  0  0
    4.5981   -2.5585   -1.7187 H   0  0  0  0  0  0  0  0  0  0  0  0
    1.9841   -3.9422   -2.4700 H   0  0  0  0  0  0  0  0  0  0  0  0
    3.4199   -3.8496    0.2373 H   0  0  0  0  0  0  0  0  0  0  0  0
    1.1869   -5.7845   -0.4043 H   0  0  0  0  0  0  0  0  0  0  0  0
   -0.1319   -4.0332   -1.1350 H   0  0  0  0  0  0  0  0  0  0  0  0
    1.4412   -2.0912    0.6509 H   0  0  0  0  0  0  0  0  0  0  0  0
   -0.3679   -1.3006    1.4279 H   0  0  0  0  0  0  0  0  0  0  0  0
   -2.4526   -1.0721   -0.7137 H   0  0  0  0  0  0  0  0  0  0  0  0
   -3.9262    0.1208    1.1193 H   0  0  0  0  0  0  0  0  0  0  0  0
   -0.3758    0.9957    2.6799 H   0  0  0  0  0  0  0  0  0  0  0  0
   -0.4576    1.1459   -0.3928 H   0  0  0  0  0  0  0  0  0  0  0  0
    3.9319    2.2101   -0.4119 H   0  0  0  0  0  0  0  0  0  0  0  0
    3.3422   -0.5504    0.8469 H   0  0  0  0  0  0  0  0  0  0  0  0
    5.4653   -1.1965    2.0845 H   0  0  0  0  0  0  0  0  0  0  0  0
    7.9513    0.3142   -1.9539 H   0  0  0  0  0  0  0  0  0  0  0  0
    5.5979    0.9276   -1.6824 H   0  0  0  0  0  0  0  0  0  0  0  0
    9.6756   -0.8926   -1.0693 H   0  0  0  0  0  0  0  0  0  0  0  0
    8.8435   -2.1144    1.6292 H   0  0  0  0  0  0  0  0  0  0  0  0
    0.2052    3.1836    2.1373 H   0  0  0  0  0  0  0  0  0  0  0  0
   -1.5127    3.2679    2.5258 H   0  0  0  0  0  0  0  0  0  0  0  0
   -0.2263    3.4468    0.0375 H   0  0  0  0  0  0  0  0  0  0  0  0
   -4.0584    2.6166    0.9917 H   0  0  0  0  0  0  0  0  0  0  0  0
   -3.6260    3.2335   -0.6000 H   0  0  0  0  0  0  0  0  0  0  0  0
   -5.5858    0.9016   -0.2450 H   0  0  0  0  0  0  0  0  0  0  0  0
   -5.1593    1.6764   -1.7356 H   0  0  0  0  0  0  0  0  0  0  0  0
   -6.0603    3.8938   -2.3267 H   0  0  0  0  0  0  0  0  0  0  0  0
   -8.8104    3.7054    1.8200 H   0  0  0  0  0  0  0  0  0  0  0  0
   -6.9848    2.0666    1.4724 H   0  0  0  0  0  0  0  0  0  0  0  0
   -9.4514    6.1671   -0.6443 H   0  0  0  0  0  0  0  0  0  0  0  0
   -7.3380    5.6867   -2.8420 H   0  0  0  0  0  0  0  0  0  0  0  0
   -2.6410   -1.8038    2.0119 H   0  0  0  0  0  0  0  0  0  0  0  0
   -1.3670   -3.4039    0.6191 H   0  0  0  0  0  0  0  0  0  0  0  0
    0.7495   -5.0183    1.8081 H   0  0  0  0  0  0  0  0  0  0  0  0
    3.6949   -6.0630   -0.0756 H   0  0  0  0  0  0  0  0  0  0  0  0
  1  2  1  0
  2  3  1  0
  3  4  1  0
  4  5  1  0
  5  6  1  0
  6  7  1  0
  6  8  1  0
  8  9  1  0
  9 10  1  0
 10 11  1  0
 11 12  1  0
 12 13  1  0
 13 14  1  0
 14 15  1  0
 15 16  1  0
 16 17  2  0
 16 18  1  0
 18 19  2  0
 19 20  1  0
 20 21  2  0
 21 22  1  0
 22 23  2  0
 23 24  1  0
 24 25  2  0
 23 26  1  0
 22 27  1  0
 13 28  1  0
 28 29  1  0
 11 30  1  0
 30 31  1  0
 31 32  1  0
 32 33  1  0
 33 34  2  0
 34 35  1  0
 35 36  2  0
 36 37  1  0
 37 38  2  0
 36 39  1  0
 35 40  1  0
 10 41  1  0
  5 42  1  0
  4 43  1  0
  3 44  1  0
  7  2  1  0
 14  9  1  0
 25 20  1  0
 38 33  1  0
  1 45  1  0
  1 46  1  0
  1 47  1  0
  2 48  1  6
  3 49  1  1
  4 50  1  6
  5 51  1  6
  6 52  1  1
  9 53  1  1
 10 54  1  6
 11 55  1  1
 13 56  1  1
 14 57  1  6
 18 58  1  0
 19 59  1  0
 21 60  1  0
 24 61  1  0
 25 62  1  0
 26 63  1  0
 27 64  1  0
 28 65  1  0
 28 66  1  0
 29 67  1  0
 31 68  1  0
 31 69  1  0
 32 70  1  0
 32 71  1  0
 34 72  1  0
 37 73  1  0
 38 74  1  0
 39 75  1  0
 40 76  1  0
 41 77  1  0
 42 78  1  0
 43 79  1  0
 44 80  1  0
M  END
$$$$
