
     RDKit          3D

 28 31  0  0  0  0  0  0  0  0999 V2000
   -4.2474   -0.7569   -0.3917 C   0  0  0  0  0  0  0  0  0  0  0  0
   -3.0215   -1.1645   -0.9353 C   0  0  0  0  0  0  0  0  0  0  0  0
   -1.8367   -0.6164   -0.4115 C   0  0  0  0  0  0  0  0  0  0  0  0
   -1.9351    0.3114    0.6290 C   0  0  0  0  0  0  0  0  0  0  0  0
   -3.1386    0.7359    1.1897 C   0  0  0  0  0  0  0  0  0  0  0  0
   -4.2932    0.1720    0.6462 C   0  0  0  0  0  0  0  0  0  0  0  0
   -5.5279    0.5164    1.1200 O   0  0  0  0  0  0  0  0  0  0  0  0
   -0.6931    0.7387    1.0140 O   0  0  0  0  0  0  0  0  0  0  0  0
    0.1795    0.0819    0.2188 C   0  0  0  0  0  0  0  0  0  0  0  0
   -0.4497   -0.7539   -0.6660 C   0  0  0  0  0  0  0  0  0  0  0  0
    0.3256   -1.5392   -1.5974 C   0  0  0  0  0  0  0  0  0  0  0  0
   -0.1731   -2.3054   -2.4141 O   0  0  0  0  0  0  0  0  0  0  0  0
    1.7339   -1.3674   -1.5090 O   0  0  0  0  0  0  0  0  0  0  0  0
    2.3625   -0.4868   -0.5742 C   0  0  0  0  0  0  0  0  0  0  0  0
    1.5970    0.2711    0.3257 C   0  0  0  0  0  0  0  0  0  0  0  0
    2.2320    1.1217    1.2266 C   0  0  0  0  0  0  0  0  0  0  0  0
    3.6287    1.2081    1.2207 C   0  0  0  0  0  0  0  0  0  0  0  0
    4.3709    0.4439    0.3154 C   0  0  0  0  0  0  0  0  0  0  0  0
    3.7495   -0.4098   -0.5899 C   0  0  0  0  0  0  0  0  0  0  0  0
    5.7329    0.5089    0.2881 O   0  0  0  0  0  0  0  0  0  0  0  0
   -5.1735   -1.1706   -0.7847 H   0  0  0  0  0  0  0  0  0  0  0  0
   -2.9921   -1.8895   -1.7449 H   0  0  0  0  0  0  0  0  0  0  0  0
   -3.1521    1.4578    1.9946 H   0  0  0  0  0  0  0  0  0  0  0  0
   -5.4202    1.1654    1.8349 H   0  0  0  0  0  0  0  0  0  0  0  0
    1.6532    1.7152    1.9299 H   0  0  0  0  0  0  0  0  0  0  0  0
    4.1192    1.8733    1.9256 H   0  0  0  0  0  0  0  0  0  0  0  0
    4.3356   -0.9982   -1.2880 H   0  0  0  0  0  0  0  0  0  0  0  0
    6.0337    1.1369    0.9656 H   0  0  0  0  0  0  0  0  0  0  0  0
  1  2  2  0
  2  3  1  0
  3  4  2  0
  4  5  1  0
  5  6  2  0
  6  7  1  0
  4  8  1  0
  8  9  1  0
  9 10  2  0
 10 11  1  0
 11 12  2  0
 11 13  1  0
 13 14  1  0
 14 15  2  0
 15 16  1  0
 16 17  2  0
 17 18  1  0
 18 19  2  0
 18 20  1  0
  6  1  1  0
 10  3  1  0
 15  9  1  0
 19 14  1  0
  1 21  1  0
  2 22  1  0
  5 23  1  0
  7 24  1  0
 16 25  1  0
 17 26  1  0
 19 27  1  0
 20 28  1  0
M  END
$$$$
