
     RDKit          3D

102107  0  0  0  0  0  0  0  0999 V2000
   -7.7799    0.3999    1.3199 C   0  0  0  0  0  0  0  0  0  0  0  0
   -6.5910   -0.1205    0.4861 C   0  0  2  0  0  0  0  0  0  0  0  0
   -6.9814   -1.4666   -0.1788 C   0  0  0  0  0  0  0  0  0  0  0  0
   -8.2433   -1.4454   -1.0658 C   0  0  0  0  0  0  0  0  0  0  0  0
   -8.2335   -0.3876   -2.1369 C   0  0  0  0  0  0  0  0  0  0  0  0
   -7.9751   -0.5375   -3.4507 C   0  0  0  0  0  0  0  0  0  0  0  0
   -8.0529    0.6441   -4.3834 C   0  0  0  0  0  0  0  0  0  0  0  0
   -7.5806   -1.8255   -4.1143 C   0  0  0  0  0  0  0  0  0  0  0  0
   -5.3275   -0.1317    1.4032 C   0  0  1  0  0  0  0  0  0  0  0  0
   -5.2651   -1.2570    2.4672 C   0  0  0  0  0  0  0  0  0  0  0  0
   -3.7740   -1.5178    2.7537 C   0  0  0  0  0  0  0  0  0  0  0  0
   -3.0159   -0.3467    2.0981 C   0  0  2  0  0  0  0  0  0  0  0  0
   -3.8824   -0.1041    0.8100 C   0  0  2  0  0  0  0  0  0  0  0  0
   -3.4527    1.2296    0.1940 C   0  0  0  0  0  0  0  0  0  0  0  0
   -1.9271    1.4394    0.1379 C   0  0  0  0  0  0  0  0  0  0  0  0
   -1.0040    0.3073    0.6196 C   0  0  2  0  0  0  0  0  0  0  0  0
   -1.5561   -0.6728    1.6886 C   0  0  1  0  0  0  0  0  0  0  0  0
   -0.6022   -0.8266    2.8842 C   0  0  0  0  0  0  0  0  0  0  0  0
    0.8090   -1.1719    2.4140 C   0  0  0  0  0  0  0  0  0  0  0  0
    1.4234    0.0334    1.6873 C   0  0  2  0  0  0  0  0  0  0  0  0
    0.5321    0.5679    0.5539 C   0  0  1  0  0  0  0  0  0  0  0  0
   -0.1291   -0.3519   -0.4367 C   0  0  0  0  0  0  0  0  0  0  0  0
    1.0718    1.8726   -0.0074 C   0  0  0  0  0  0  0  0  0  0  0  0
    2.4925    1.6796   -0.5230 C   0  0  0  0  0  0  0  0  0  0  0  0
    3.4184    1.1684    0.5832 C   0  0  1  0  0  0  0  0  0  0  0  0
    2.9099   -0.1662    1.2223 C   0  0  0  0  0  0  0  0  0  0  0  0
    3.0582   -1.3502    0.2401 C   0  0  0  0  0  0  0  0  0  0  0  0
    3.8140   -0.4755    2.4416 C   0  0  0  0  0  0  0  0  0  0  0  0
    4.7436    0.9596    0.0507 O   0  0  0  0  0  0  0  0  0  0  0  0
    5.5244    2.0537   -0.0900 C   0  0  0  0  0  0  0  0  0  0  0  0
    5.2017    3.2114    0.1305 O   0  0  0  0  0  0  0  0  0  0  0  0
    6.8796    1.6964   -0.5604 C   0  0  0  0  0  0  0  0  0  0  0  0
    7.3601    0.4404   -0.6056 C   0  0  0  0  0  0  0  0  0  0  0  0
    8.7188    0.0751   -1.0488 C   0  0  0  0  0  0  0  0  0  0  0  0
    9.8123    0.9591   -0.9659 C   0  0  0  0  0  0  0  0  0  0  0  0
   11.0885    0.5569   -1.3737 C   0  0  0  0  0  0  0  0  0  0  0  0
   11.2659   -0.7473   -1.8461 C   0  0  0  0  0  0  0  0  0  0  0  0
   10.2080   -1.6421   -1.9168 C   0  0  0  0  0  0  0  0  0  0  0  0
    8.9354   -1.2311   -1.5177 C   0  0  0  0  0  0  0  0  0  0  0  0
   12.5001   -1.1768   -2.2543 O   0  0  0  0  0  0  0  0  0  0  0  0
   12.2265    1.3231   -1.3610 O   0  0  0  0  0  0  0  0  0  0  0  0
   12.0922    2.6537   -0.8727 C   0  0  0  0  0  0  0  0  0  0  0  0
   -3.7243   -1.1957   -0.2782 C   0  0  0  0  0  0  0  0  0  0  0  0
   -3.0277    0.8339    3.1217 C   0  0  0  0  0  0  0  0  0  0  0  0
   -7.5292    1.3382    1.8318 H   0  0  0  0  0  0  0  0  0  0  0  0
   -8.0727   -0.3364    2.0787 H   0  0  0  0  0  0  0  0  0  0  0  0
   -8.6579    0.6138    0.6972 H   0  0  0  0  0  0  0  0  0  0  0  0
   -6.4000    0.6140   -0.3063 H   0  0  0  0  0  0  0  0  0  0  0  0
   -6.1619   -1.8334   -0.8044 H   0  0  0  0  0  0  0  0  0  0  0  0
   -7.1501   -2.2344    0.5905 H   0  0  0  0  0  0  0  0  0  0  0  0
   -9.1361   -1.2949   -0.4445 H   0  0  0  0  0  0  0  0  0  0  0  0
   -8.3760   -2.4418   -1.5005 H   0  0  0  0  0  0  0  0  0  0  0  0
   -8.4961    0.6078   -1.7740 H   0  0  0  0  0  0  0  0  0  0  0  0
   -8.7532    0.4382   -5.1967 H   0  0  0  0  0  0  0  0  0  0  0  0
   -8.3922    1.5582   -3.8779 H   0  0  0  0  0  0  0  0  0  0  0  0
   -7.0641    0.8454   -4.8159 H   0  0  0  0  0  0  0  0  0  0  0  0
   -6.6740   -1.6784   -4.7099 H   0  0  0  0  0  0  0  0  0  0  0  0
   -8.3801   -2.1624   -4.7850 H   0  0  0  0  0  0  0  0  0  0  0  0
   -7.3676   -2.6316   -3.4049 H   0  0  0  0  0  0  0  0  0  0  0  0
   -5.4222    0.8069    1.9621 H   0  0  0  0  0  0  0  0  0  0  0  0
   -5.7295   -2.1896    2.1417 H   0  0  0  0  0  0  0  0  0  0  0  0
   -5.7824   -0.9410    3.3794 H   0  0  0  0  0  0  0  0  0  0  0  0
   -3.4840   -2.4764    2.3101 H   0  0  0  0  0  0  0  0  0  0  0  0
   -3.5827   -1.6113    3.8303 H   0  0  0  0  0  0  0  0  0  0  0  0
   -3.8720    1.3373   -0.8159 H   0  0  0  0  0  0  0  0  0  0  0  0
   -3.8862    2.0697    0.7557 H   0  0  0  0  0  0  0  0  0  0  0  0
   -1.6857    2.3364    0.7204 H   0  0  0  0  0  0  0  0  0  0  0  0
   -1.6827    1.7016   -0.8979 H   0  0  0  0  0  0  0  0  0  0  0  0
   -1.5732   -1.6652    1.2160 H   0  0  0  0  0  0  0  0  0  0  0  0
   -0.5497    0.0952    3.4775 H   0  0  0  0  0  0  0  0  0  0  0  0
   -0.9660   -1.6205    3.5498 H   0  0  0  0  0  0  0  0  0  0  0  0
    0.7830   -2.0657    1.7803 H   0  0  0  0  0  0  0  0  0  0  0  0
    1.4077   -1.4228    3.2959 H   0  0  0  0  0  0  0  0  0  0  0  0
    1.4474    0.8407    2.4357 H   0  0  0  0  0  0  0  0  0  0  0  0
    0.0659   -1.4166   -0.3794 H   0  0  0  0  0  0  0  0  0  0  0  0
   -0.2304   -0.0261   -1.4671 H   0  0  0  0  0  0  0  0  0  0  0  0
    0.4591    2.2555   -0.8276 H   0  0  0  0  0  0  0  0  0  0  0  0
    1.0608    2.6342    0.7800 H   0  0  0  0  0  0  0  0  0  0  0  0
    2.8646    2.6310   -0.9197 H   0  0  0  0  0  0  0  0  0  0  0  0
    2.5028    0.9852   -1.3732 H   0  0  0  0  0  0  0  0  0  0  0  0
    3.4698    1.9233    1.3796 H   0  0  0  0  0  0  0  0  0  0  0  0
    2.7473   -2.2952    0.6982 H   0  0  0  0  0  0  0  0  0  0  0  0
    4.0996   -1.4817   -0.0769 H   0  0  0  0  0  0  0  0  0  0  0  0
    2.4659   -1.2139   -0.6712 H   0  0  0  0  0  0  0  0  0  0  0  0
    4.8723   -0.5160    2.1575 H   0  0  0  0  0  0  0  0  0  0  0  0
    3.5737   -1.4444    2.8961 H   0  0  0  0  0  0  0  0  0  0  0  0
    3.7102    0.2916    3.2159 H   0  0  0  0  0  0  0  0  0  0  0  0
    7.4663    2.5631   -0.8524 H   0  0  0  0  0  0  0  0  0  0  0  0
    6.7342   -0.4004   -0.3018 H   0  0  0  0  0  0  0  0  0  0  0  0
    9.6547    1.9553   -0.5674 H   0  0  0  0  0  0  0  0  0  0  0  0
   10.3743   -2.6514   -2.2793 H   0  0  0  0  0  0  0  0  0  0  0  0
    8.1126   -1.9417   -1.5794 H   0  0  0  0  0  0  0  0  0  0  0  0
   13.0909   -0.4101   -2.1230 H   0  0  0  0  0  0  0  0  0  0  0  0
   11.7766    2.6566    0.1731 H   0  0  0  0  0  0  0  0  0  0  0  0
   13.0754    3.1291   -0.9290 H   0  0  0  0  0  0  0  0  0  0  0  0
   11.4059    3.2357   -1.4948 H   0  0  0  0  0  0  0  0  0  0  0  0
   -2.6985   -1.3075   -0.6297 H   0  0  0  0  0  0  0  0  0  0  0  0
   -4.0466   -2.1807    0.0706 H   0  0  0  0  0  0  0  0  0  0  0  0
   -4.3006   -0.9392   -1.1728 H   0  0  0  0  0  0  0  0  0  0  0  0
   -4.0287    1.2066    3.3458 H   0  0  0  0  0  0  0  0  0  0  0  0
   -2.6143    0.5164    4.0873 H   0  0  0  0  0  0  0  0  0  0  0  0
   -2.4346    1.6870    2.7850 H   0  0  0  0  0  0  0  0  0  0  0  0
  1  2  1  0
  2  3  1  0
  3  4  1  0
  4  5  1  0
  5  6  2  3
  6  7  1  0
  6  8  1  0
  2  9  1  0
  9 10  1  0
 10 11  1  0
 11 12  1  0
 12 13  1  0
 13 14  1  0
 14 15  1  0
 16 15  1  6
 16 17  1  0
 17 18  1  0
 18 19  1  0
 19 20  1  0
 20 21  1  0
 21 22  1  6
 21 23  1  0
 23 24  1  0
 24 25  1  0
 25 26  1  0
 26 27  1  0
 26 28  1  0
 25 29  1  0
 29 30  1  0
 30 31  2  0
 30 32  1  0
 32 33  2  0
 33 34  1  0
 34 35  2  0
 35 36  1  0
 36 37  2  0
 37 38  1  0
 38 39  2  0
 37 40  1  0
 36 41  1  0
 41 42  1  0
 13 43  1  6
 12 44  1  1
 13  9  1  0
 17 12  1  0
 21 16  1  0
 22 16  1  0
 26 20  1  0
 39 34  1  0
  1 45  1  0
  1 46  1  0
  1 47  1  0
  2 48  1  6
  3 49  1  0
  3 50  1  0
  4 51  1  0
  4 52  1  0
  5 53  1  0
  7 54  1  0
  7 55  1  0
  7 56  1  0
  8 57  1  0
  8 58  1  0
  8 59  1  0
  9 60  1  1
 10 61  1  0
 10 62  1  0
 11 63  1  0
 11 64  1  0
 14 65  1  0
 14 66  1  0
 15 67  1  0
 15 68  1  0
 17 69  1  6
 18 70  1  0
 18 71  1  0
 19 72  1  0
 19 73  1  0
 20 74  1  1
 22 75  1  0
 22 76  1  0
 23 77  1  0
 23 78  1  0
 24 79  1  0
 24 80  1  0
 25 81  1  1
 27 82  1  0
 27 83  1  0
 27 84  1  0
 28 85  1  0
 28 86  1  0
 28 87  1  0
 32 88  1  0
 33 89  1  0
 35 90  1  0
 38 91  1  0
 39 92  1  0
 40 93  1  0
 42 94  1  0
 42 95  1  0
 42 96  1  0
 43 97  1  0
 43 98  1  0
 43 99  1  0
 44100  1  0
 44101  1  0
 44102  1  0
M  END
$$$$
