
     RDKit          3D

 50 50  0  0  0  0  0  0  0  0999 V2000
   -3.1229   -1.0973   -2.2192 C   0  0  0  0  0  0  0  0  0  0  0  0
   -3.5599   -0.2301   -1.0630 C   0  0  0  0  0  0  0  0  0  0  0  0
   -2.7726    0.6808   -0.4367 C   0  0  0  0  0  0  0  0  0  0  0  0
   -3.2884    1.5986    0.6910 C   0  0  0  0  0  0  0  0  0  0  0  0
   -4.8402    1.5931    0.7532 C   0  0  0  0  0  0  0  0  0  0  0  0
   -5.4232    0.1945    0.6326 C   0  0  0  0  0  0  0  0  0  0  0  0
   -5.0096   -0.4483   -0.6851 C   0  0  0  0  0  0  0  0  0  0  0  0
   -2.7222    1.1111    2.0449 C   0  0  0  0  0  0  0  0  0  0  0  0
   -2.8629    3.0734    0.4887 C   0  0  0  0  0  0  0  0  0  0  0  0
   -1.3728    0.8611   -0.8086 C   0  0  0  0  0  0  0  0  0  0  0  0
   -0.3960    0.0132   -0.4419 C   0  0  0  0  0  0  0  0  0  0  0  0
    1.0271    0.1544   -0.7592 C   0  0  0  0  0  0  0  0  0  0  0  0
    1.9182   -0.5553   -0.0327 C   0  0  0  0  0  0  0  0  0  0  0  0
    3.3638   -0.5493   -0.1614 C   0  0  0  0  0  0  0  0  0  0  0  0
    4.1672   -1.2811    0.6355 C   0  0  0  0  0  0  0  0  0  0  0  0
    5.6285   -1.3155    0.5912 C   0  0  0  0  0  0  0  0  0  0  0  0
    6.4009   -2.0123    1.4532 C   0  0  0  0  0  0  0  0  0  0  0  0
    5.9763   -2.8557    2.5860 C   0  0  0  0  0  0  0  0  0  0  0  0
    4.8560   -3.1388    2.9546 O   0  0  0  0  0  0  0  0  0  0  0  0
    7.0631   -3.3206    3.2288 O   0  0  0  0  0  0  0  0  0  0  0  0
    6.3125   -0.5139   -0.4929 C   0  0  0  0  0  0  0  0  0  0  0  0
    1.3831    1.0713   -1.9077 C   0  0  0  0  0  0  0  0  0  0  0  0
   -3.7188   -0.8517   -3.1041 H   0  0  0  0  0  0  0  0  0  0  0  0
   -3.2808   -2.1526   -1.9819 H   0  0  0  0  0  0  0  0  0  0  0  0
   -2.0723   -0.9786   -2.4955 H   0  0  0  0  0  0  0  0  0  0  0  0
   -5.1875    2.0494    1.6872 H   0  0  0  0  0  0  0  0  0  0  0  0
   -5.2487    2.2090   -0.0572 H   0  0  0  0  0  0  0  0  0  0  0  0
   -6.5182    0.2408    0.6863 H   0  0  0  0  0  0  0  0  0  0  0  0
   -5.0969   -0.4308    1.4734 H   0  0  0  0  0  0  0  0  0  0  0  0
   -5.2231   -1.5237   -0.6235 H   0  0  0  0  0  0  0  0  0  0  0  0
   -5.6357   -0.0459   -1.4928 H   0  0  0  0  0  0  0  0  0  0  0  0
   -1.6259    1.1895    2.0815 H   0  0  0  0  0  0  0  0  0  0  0  0
   -3.1160    1.7100    2.8743 H   0  0  0  0  0  0  0  0  0  0  0  0
   -2.9796    0.0633    2.2385 H   0  0  0  0  0  0  0  0  0  0  0  0
   -3.1887    3.4443   -0.4917 H   0  0  0  0  0  0  0  0  0  0  0  0
   -1.7774    3.2065    0.5573 H   0  0  0  0  0  0  0  0  0  0  0  0
   -3.3103    3.7214    1.2539 H   0  0  0  0  0  0  0  0  0  0  0  0
   -1.1566    1.7675   -1.3656 H   0  0  0  0  0  0  0  0  0  0  0  0
   -0.6701   -0.8471    0.1672 H   0  0  0  0  0  0  0  0  0  0  0  0
    1.5415   -1.1943    0.7700 H   0  0  0  0  0  0  0  0  0  0  0  0
    3.7925    0.0951   -0.9209 H   0  0  0  0  0  0  0  0  0  0  0  0
    3.6907   -1.8960    1.3906 H   0  0  0  0  0  0  0  0  0  0  0  0
    7.4814   -1.9706    1.3425 H   0  0  0  0  0  0  0  0  0  0  0  0
    6.6857   -3.8597    3.9568 H   0  0  0  0  0  0  0  0  0  0  0  0
    6.0761    0.5514   -0.4016 H   0  0  0  0  0  0  0  0  0  0  0  0
    6.0020   -0.8634   -1.4872 H   0  0  0  0  0  0  0  0  0  0  0  0
    7.4041   -0.6037   -0.4489 H   0  0  0  0  0  0  0  0  0  0  0  0
    1.1723    2.1174   -1.6517 H   0  0  0  0  0  0  0  0  0  0  0  0
    0.8026    0.8015   -2.7968 H   0  0  0  0  0  0  0  0  0  0  0  0
    2.4317    1.0177   -2.2084 H   0  0  0  0  0  0  0  0  0  0  0  0
  1  2  1  0
  2  3  2  0
  3  4  1  0
  4  5  1  0
  5  6  1  0
  6  7  1  0
  4  8  1  0
  4  9  1  0
  3 10  1  0
 10 11  2  0
 11 12  1  0
 12 13  2  0
 13 14  1  0
 14 15  2  0
 15 16  1  0
 16 17  2  0
 17 18  1  0
 18 19  2  0
 18 20  1  0
 16 21  1  0
 12 22  1  0
  7  2  1  0
  1 23  1  0
  1 24  1  0
  1 25  1  0
  5 26  1  0
  5 27  1  0
  6 28  1  0
  6 29  1  0
  7 30  1  0
  7 31  1  0
  8 32  1  0
  8 33  1  0
  8 34  1  0
  9 35  1  0
  9 36  1  0
  9 37  1  0
 10 38  1  0
 11 39  1  0
 13 40  1  0
 14 41  1  0
 15 42  1  0
 17 43  1  0
 20 44  1  0
 21 45  1  0
 21 46  1  0
 21 47  1  0
 22 48  1  0
 22 49  1  0
 22 50  1  0
M  END
$$$$
