
     RDKit          3D

 69 73  0  0  0  0  0  0  0  0999 V2000
   -6.2612   -2.8021    1.2445 C   0  0  0  0  0  0  0  0  0  0  0  0
   -5.6293   -1.8143    0.3133 C   0  0  0  0  0  0  0  0  0  0  0  0
   -5.8456   -1.7574   -0.8867 O   0  0  0  0  0  0  0  0  0  0  0  0
   -4.8045   -0.9836    1.0050 O   0  0  0  0  0  0  0  0  0  0  0  0
   -4.0635    0.0055    0.2653 C   0  0  0  0  0  0  0  0  0  0  0  0
   -3.0737    0.6554    1.2714 C   0  0  0  0  0  0  0  0  0  0  0  0
   -3.6618    1.6997    2.2129 C   0  0  0  0  0  0  0  0  0  0  0  0
   -1.9604    1.2137    0.3872 C   0  0  0  0  0  0  0  0  0  0  0  0
   -0.5638    1.3146    1.0115 C   0  0  0  0  0  0  0  0  0  0  0  0
    0.3382    0.8064   -0.1155 C   0  0  0  0  0  0  0  0  0  0  0  0
    1.8258    0.5715    0.2363 C   0  0  0  0  0  0  0  0  0  0  0  0
    2.5225    1.9454    0.1889 C   0  0  0  0  0  0  0  0  0  0  0  0
    4.0062    1.8876    0.1801 C   0  0  0  0  0  0  0  0  0  0  0  0
    4.7187    0.8137   -0.1887 C   0  0  0  0  0  0  0  0  0  0  0  0
    6.2245    0.8292   -0.0399 C   0  0  0  0  0  0  0  0  0  0  0  0
    6.6347   -0.2974    0.8889 C   0  0  0  0  0  0  0  0  0  0  0  0
    7.5194   -0.1491    1.7332 O   0  0  0  0  0  0  0  0  0  0  0  0
    6.0141   -1.6541    0.6393 C   0  0  0  0  0  0  0  0  0  0  0  0
    4.5066   -1.5497    0.4058 C   0  0  0  0  0  0  0  0  0  0  0  0
    4.0807   -0.4903   -0.6631 C   0  0  0  0  0  0  0  0  0  0  0  0
    4.6623   -0.8979   -2.0365 C   0  0  0  0  0  0  0  0  0  0  0  0
    2.4904   -0.4755   -0.7116 C   0  0  0  0  0  0  0  0  0  0  0  0
    1.7947   -0.4136   -2.0914 C   0  0  0  0  0  0  0  0  0  0  0  0
    0.3014   -0.8535   -2.0102 C   0  0  0  0  0  0  0  0  0  0  0  0
   -0.4977   -0.3404   -3.5288 Cl  0  0  0  0  0  0  0  0  0  0  0  0
   -0.4214   -0.4090   -0.6930 C   0  0  0  0  0  0  0  0  0  0  0  0
   -0.4380   -1.6108    0.2956 C   0  0  0  0  0  0  0  0  0  0  0  0
   -1.8460    0.2279   -0.8064 C   0  0  0  0  0  0  0  0  0  0  0  0
   -3.0915   -0.6680   -0.7405 C   0  0  0  0  0  0  0  0  0  0  0  0
   -4.9495    1.0775   -0.4335 C   0  0  0  0  0  0  0  0  0  0  0  0
   -6.3362    1.3192    0.1125 C   0  0  0  0  0  0  0  0  0  0  0  0
   -4.5419    1.7494   -1.3845 O   0  0  0  0  0  0  0  0  0  0  0  0
   -6.9108   -2.2802    1.9514 H   0  0  0  0  0  0  0  0  0  0  0  0
   -5.4859   -3.3616    1.7743 H   0  0  0  0  0  0  0  0  0  0  0  0
   -6.8638   -3.5096    0.6677 H   0  0  0  0  0  0  0  0  0  0  0  0
   -2.6753   -0.1398    1.9158 H   0  0  0  0  0  0  0  0  0  0  0  0
   -2.8974    2.0556    2.9120 H   0  0  0  0  0  0  0  0  0  0  0  0
   -4.4797    1.2745    2.8031 H   0  0  0  0  0  0  0  0  0  0  0  0
   -4.0428    2.5723    1.6733 H   0  0  0  0  0  0  0  0  0  0  0  0
   -2.2445    2.2021    0.0007 H   0  0  0  0  0  0  0  0  0  0  0  0
   -0.3287    2.3474    1.2884 H   0  0  0  0  0  0  0  0  0  0  0  0
   -0.4684    0.7020    1.9142 H   0  0  0  0  0  0  0  0  0  0  0  0
    0.3092    1.5840   -0.8976 H   0  0  0  0  0  0  0  0  0  0  0  0
    1.9048    0.1839    1.2612 H   0  0  0  0  0  0  0  0  0  0  0  0
    2.2188    2.5189   -0.6958 H   0  0  0  0  0  0  0  0  0  0  0  0
    2.2019    2.5276    1.0619 H   0  0  0  0  0  0  0  0  0  0  0  0
    4.5136    2.7910    0.5159 H   0  0  0  0  0  0  0  0  0  0  0  0
    6.5751    1.7715    0.3971 H   0  0  0  0  0  0  0  0  0  0  0  0
    6.7287    0.7074   -1.0024 H   0  0  0  0  0  0  0  0  0  0  0  0
    6.2001   -2.2905    1.5116 H   0  0  0  0  0  0  0  0  0  0  0  0
    6.5204   -2.1115   -0.2164 H   0  0  0  0  0  0  0  0  0  0  0  0
    4.0273   -1.3062    1.3648 H   0  0  0  0  0  0  0  0  0  0  0  0
    4.1362   -2.5426    0.1188 H   0  0  0  0  0  0  0  0  0  0  0  0
    4.2738   -1.8725   -2.3533 H   0  0  0  0  0  0  0  0  0  0  0  0
    4.4200   -0.1557   -2.8057 H   0  0  0  0  0  0  0  0  0  0  0  0
    5.7520   -0.9944   -2.0346 H   0  0  0  0  0  0  0  0  0  0  0  0
    2.2131   -1.4681   -0.3412 H   0  0  0  0  0  0  0  0  0  0  0  0
    1.8869    0.6027   -2.4959 H   0  0  0  0  0  0  0  0  0  0  0  0
    2.2744   -1.0815   -2.8137 H   0  0  0  0  0  0  0  0  0  0  0  0
    0.2809   -1.9481   -2.0660 H   0  0  0  0  0  0  0  0  0  0  0  0
    0.5505   -1.8867    0.6636 H   0  0  0  0  0  0  0  0  0  0  0  0
   -1.0393   -1.4179    1.1869 H   0  0  0  0  0  0  0  0  0  0  0  0
   -0.8541   -2.5041   -0.1837 H   0  0  0  0  0  0  0  0  0  0  0  0
   -1.9147    0.8503   -1.7063 H   0  0  0  0  0  0  0  0  0  0  0  0
   -3.5367   -0.7562   -1.7387 H   0  0  0  0  0  0  0  0  0  0  0  0
   -2.8649   -1.6890   -0.4237 H   0  0  0  0  0  0  0  0  0  0  0  0
   -7.0411    0.6197   -0.3409 H   0  0  0  0  0  0  0  0  0  0  0  0
   -6.3496    1.2120    1.1989 H   0  0  0  0  0  0  0  0  0  0  0  0
   -6.6438    2.3414   -0.1270 H   0  0  0  0  0  0  0  0  0  0  0  0
  1  2  1  0
  2  3  2  0
  2  4  1  0
  4  5  1  0
  5  6  1  0
  6  7  1  0
  6  8  1  0
  8  9  1  0
  9 10  1  0
 10 11  1  0
 11 12  1  0
 12 13  1  0
 13 14  2  0
 14 15  1  0
 15 16  1  0
 16 17  2  0
 16 18  1  0
 18 19  1  0
 19 20  1  0
 20 21  1  0
 20 22  1  0
 22 23  1  0
 23 24  1  0
 24 25  1  0
 24 26  1  0
 26 27  1  0
 26 28  1  0
 28 29  1  0
  5 30  1  0
 30 31  1  0
 30 32  2  0
 29  5  1  0
 28  8  1  0
 26 10  1  0
 22 11  1  0
 20 14  1  0
  1 33  1  0
  1 34  1  0
  1 35  1  0
  6 36  1  0
  7 37  1  0
  7 38  1  0
  7 39  1  0
  8 40  1  0
  9 41  1  0
  9 42  1  0
 10 43  1  0
 11 44  1  0
 12 45  1  0
 12 46  1  0
 13 47  1  0
 15 48  1  0
 15 49  1  0
 18 50  1  0
 18 51  1  0
 19 52  1  0
 19 53  1  0
 21 54  1  0
 21 55  1  0
 21 56  1  0
 22 57  1  0
 23 58  1  0
 23 59  1  0
 24 60  1  0
 27 61  1  0
 27 62  1  0
 27 63  1  0
 28 64  1  0
 29 65  1  0
 29 66  1  0
 31 67  1  0
 31 68  1  0
 31 69  1  0
M  END
$$$$
