
     RDKit          3D

196196  0  0  0  0  0  0  0  0999 V2000
    1.7319   -5.9847    2.3793 C   0  0  0  0  0  0  0  0  0  0  0  0
    1.5730   -6.6982    1.0528 C   0  0  0  0  0  0  0  0  0  0  0  0
    0.7706   -5.8961    0.0249 C   0  0  1  0  0  0  0  0  0  0  0  0
   -0.6300   -5.4927    0.4995 C   0  0  0  0  0  0  0  0  0  0  0  0
   -1.0078   -4.3110    0.4431 O   0  0  0  0  0  0  0  0  0  0  0  0
   -1.5779   -6.3430    1.0781 N   0  0  0  0  0  0  0  0  0  0  0  0
   -2.9027   -5.7627    1.5080 C   0  0  0  0  0  0  0  0  0  0  0  0
   -3.8568   -5.6384    0.2922 C   0  0  0  0  0  0  0  0  0  0  0  0
   -3.5074   -6.2338   -0.7291 O   0  0  0  0  0  0  0  0  0  0  0  0
   -4.9732   -4.8232    0.2932 N   0  0  0  0  0  0  0  0  0  0  0  0
   -5.5697   -4.4592   -0.9881 C   0  0  2  0  0  0  0  0  0  0  0  0
   -6.1656   -3.0271   -0.9655 C   0  0  0  0  0  0  0  0  0  0  0  0
   -6.8353   -2.7737   -1.9844 O   0  0  0  0  0  0  0  0  0  0  0  0
   -6.2578   -2.1147    0.0734 N   0  0  0  0  0  0  0  0  0  0  0  0
   -7.4184   -1.2423    0.0912 C   0  0  2  0  0  0  0  0  0  0  0  0
   -7.2603    0.1872    0.8346 C   0  0  0  0  0  0  0  0  0  0  0  0
   -8.3232    0.8532    1.0617 O   0  0  0  0  0  0  0  0  0  0  0  0
   -6.1139    0.9931    0.6669 N   0  0  0  0  0  0  0  0  0  0  0  0
   -6.3034    2.4444    0.2864 C   0  0  2  0  0  0  0  0  0  0  0  0
   -4.9712    3.0963   -0.2754 C   0  0  0  0  0  0  0  0  0  0  0  0
   -3.8508    2.6050   -0.0883 O   0  0  0  0  0  0  0  0  0  0  0  0
   -5.0423    4.0155   -1.3190 N   0  0  0  0  0  0  0  0  0  0  0  0
   -3.8531    4.1775   -2.1802 C   0  0  2  0  0  0  0  0  0  0  0  0
   -2.9295    5.3287   -1.6633 C   0  0  0  0  0  0  0  0  0  0  0  0
   -3.4359    6.3193   -1.0946 O   0  0  0  0  0  0  0  0  0  0  0  0
   -1.5734    5.1305   -1.5489 N   0  0  0  0  0  0  0  0  0  0  0  0
   -0.6926    6.0919   -0.8072 C   0  0  1  0  0  0  0  0  0  0  0  0
    0.7117    5.4956   -0.7733 C   0  0  0  0  0  0  0  0  0  0  0  0
    0.9295    4.6238   -1.6277 O   0  0  0  0  0  0  0  0  0  0  0  0
    1.7925    5.9932   -0.1014 N   0  0  0  0  0  0  0  0  0  0  0  0
    3.1440    5.7012   -0.6747 C   0  0  2  0  0  0  0  0  0  0  0  0
    4.0681    4.9093    0.3139 C   0  0  0  0  0  0  0  0  0  0  0  0
    3.8440    5.0179    1.5260 O   0  0  0  0  0  0  0  0  0  0  0  0
    5.0022    4.0122   -0.1260 N   0  0  0  0  0  0  0  0  0  0  0  0
    5.5613    2.9121    0.7485 C   0  0  2  0  0  0  0  0  0  0  0  0
    4.7557    1.5675    0.5790 C   0  0  0  0  0  0  0  0  0  0  0  0
    3.5897    1.4760    1.0145 O   0  0  0  0  0  0  0  0  0  0  0  0
    5.1091    0.7137   -0.5869 N   0  0  0  0  0  0  0  0  0  0  0  0
    4.0361    0.3769   -1.6162 C   0  0  2  0  0  0  0  0  0  0  0  0
    3.7741   -1.1971   -1.9302 C   0  0  0  0  0  0  0  0  0  0  0  0
    3.3784   -1.5601   -3.1035 O   0  0  0  0  0  0  0  0  0  0  0  0
    3.8036   -2.2640   -1.0374 N   0  0  0  0  0  0  0  0  0  0  0  0
    3.6681   -3.6557   -1.6204 C   0  0  2  0  0  0  0  0  0  0  0  0
    2.6888   -4.7762   -1.0302 C   0  0  0  0  0  0  0  0  0  0  0  0
    2.9001   -5.9843   -1.3952 O   0  0  0  0  0  0  0  0  0  0  0  0
    1.6078   -4.6261   -0.2406 N   0  0  0  0  0  0  0  0  0  0  0  0
    5.0854   -4.2558   -1.8593 C   0  0  1  0  0  0  0  0  0  0  0  0
    5.8987   -4.7090   -0.5446 C   0  0  2  0  0  0  0  0  0  0  0  0
    7.0708   -5.5983   -1.0469 C   0  0  0  0  0  0  0  0  0  0  0  0
    5.1983   -5.5348    0.5458 C   0  0  0  0  0  0  0  0  0  0  0  0
    6.0530   -5.5051    1.7952 C   0  0  0  0  0  0  0  0  0  0  0  0
    5.5233   -5.2850    3.0156 C   0  0  0  0  0  0  0  0  0  0  0  0
    6.3308   -5.3432    4.2592 C   0  0  0  0  0  0  0  0  0  0  0  0
    5.0354   -5.4270   -2.6687 O   0  0  0  0  0  0  0  0  0  0  0  0
    3.7300   -2.2174    0.3974 C   0  0  0  0  0  0  0  0  0  0  0  0
    4.5346    1.1080   -2.9320 C   0  0  0  0  0  0  0  0  0  0  0  0
    4.2044    0.5834   -4.3644 C   0  0  0  0  0  0  0  0  0  0  0  0
    4.0575    2.5604   -2.9347 C   0  0  0  0  0  0  0  0  0  0  0  0
    6.2524   -0.2045   -0.5619 C   0  0  0  0  0  0  0  0  0  0  0  0
    5.7959    3.2664    2.2193 C   0  0  0  0  0  0  0  0  0  0  0  0
    6.5526    4.5727    2.4795 C   0  0  0  0  0  0  0  0  0  0  0  0
    6.4454    4.8337    3.9919 C   0  0  0  0  0  0  0  0  0  0  0  0
    8.0027    4.5836    1.9817 C   0  0  0  0  0  0  0  0  0  0  0  0
    5.9679    4.2848   -1.1581 C   0  0  0  0  0  0  0  0  0  0  0  0
    3.7312    6.9457   -1.4132 C   0  0  0  0  0  0  0  0  0  0  0  0
    4.2753    8.1414   -0.6374 C   0  0  0  0  0  0  0  0  0  0  0  0
    4.3942    9.2742   -1.6636 C   0  0  0  0  0  0  0  0  0  0  0  0
    5.6049    7.9288    0.0343 C   0  0  0  0  0  0  0  0  0  0  0  0
    1.7014    6.9407    0.9592 C   0  0  0  0  0  0  0  0  0  0  0  0
   -0.6127    7.3971   -1.6165 C   0  0  0  0  0  0  0  0  0  0  0  0
   -4.3430    4.6278   -3.5339 C   0  0  0  0  0  0  0  0  0  0  0  0
   -6.9915    3.3425    1.2848 C   0  0  0  0  0  0  0  0  0  0  0  0
   -6.4452    3.3578    2.6878 C   0  0  0  0  0  0  0  0  0  0  0  0
   -5.1611    4.1962    2.8543 C   0  0  0  0  0  0  0  0  0  0  0  0
   -7.5519    3.9915    3.5690 C   0  0  0  0  0  0  0  0  0  0  0  0
   -4.7891    0.5253    1.0899 C   0  0  0  0  0  0  0  0  0  0  0  0
   -8.6396   -2.1061    0.6086 C   0  0  0  0  0  0  0  0  0  0  0  0
   -9.9021   -1.7075   -0.0150 C   0  0  0  0  0  0  0  0  0  0  0  0
   -8.6467   -2.1059    2.1341 C   0  0  0  0  0  0  0  0  0  0  0  0
   -6.8067   -5.3100   -1.3770 C   0  0  0  0  0  0  0  0  0  0  0  0
   -6.7117   -6.8248   -1.5051 C   0  0  0  0  0  0  0  0  0  0  0  0
   -8.0618   -7.2475   -2.0745 C   0  0  0  0  0  0  0  0  0  0  0  0
   -5.6378   -7.3347   -2.4777 C   0  0  0  0  0  0  0  0  0  0  0  0
   -5.9078   -4.7395    1.4086 C   0  0  0  0  0  0  0  0  0  0  0  0
   -1.6267   -7.7416    1.0505 C   0  0  0  0  0  0  0  0  0  0  0  0
    2.0645   -4.9407    2.2413 H   0  0  0  0  0  0  0  0  0  0  0  0
    0.7592   -6.0084    2.8985 H   0  0  0  0  0  0  0  0  0  0  0  0
    2.4442   -6.5155    3.0071 H   0  0  0  0  0  0  0  0  0  0  0  0
    2.5792   -6.9255    0.6491 H   0  0  0  0  0  0  0  0  0  0  0  0
    1.1337   -7.6979    1.1856 H   0  0  0  0  0  0  0  0  0  0  0  0
    0.7621   -6.4418   -0.8912 H   0  0  0  0  0  0  0  0  0  0  0  0
   -2.7220   -4.7506    1.9340 H   0  0  0  0  0  0  0  0  0  0  0  0
   -3.3390   -6.4512    2.2536 H   0  0  0  0  0  0  0  0  0  0  0  0
   -4.8881   -4.5599   -1.7990 H   0  0  0  0  0  0  0  0  0  0  0  0
   -5.8117   -2.1896    1.0296 H   0  0  0  0  0  0  0  0  0  0  0  0
   -7.6285   -1.0041   -0.9365 H   0  0  0  0  0  0  0  0  0  0  0  0
   -7.0297    2.3663   -0.5785 H   0  0  0  0  0  0  0  0  0  0  0  0
   -5.7397    4.7422   -1.4020 H   0  0  0  0  0  0  0  0  0  0  0  0
   -3.2951    3.2259   -2.2827 H   0  0  0  0  0  0  0  0  0  0  0  0
   -1.0240    4.5113   -2.1968 H   0  0  0  0  0  0  0  0  0  0  0  0
   -1.2731    6.3265    0.0803 H   0  0  0  0  0  0  0  0  0  0  0  0
    3.0219    5.0026   -1.5273 H   0  0  0  0  0  0  0  0  0  0  0  0
    6.5979    2.7592    0.3547 H   0  0  0  0  0  0  0  0  0  0  0  0
    3.1076    0.8746   -1.3595 H   0  0  0  0  0  0  0  0  0  0  0  0
    3.3101   -3.6452   -2.6780 H   0  0  0  0  0  0  0  0  0  0  0  0
    1.1282   -3.7639    0.0714 H   0  0  0  0  0  0  0  0  0  0  0  0
    5.7547   -3.5499   -2.4430 H   0  0  0  0  0  0  0  0  0  0  0  0
    6.3559   -3.8216   -0.0745 H   0  0  0  0  0  0  0  0  0  0  0  0
    6.6750   -6.6283   -1.2369 H   0  0  0  0  0  0  0  0  0  0  0  0
    7.8053   -5.7428   -0.2520 H   0  0  0  0  0  0  0  0  0  0  0  0
    7.5372   -5.2009   -1.9230 H   0  0  0  0  0  0  0  0  0  0  0  0
    5.0888   -6.5906    0.1830 H   0  0  0  0  0  0  0  0  0  0  0  0
    4.2434   -5.0850    0.8349 H   0  0  0  0  0  0  0  0  0  0  0  0
    7.1068   -5.7832    1.7609 H   0  0  0  0  0  0  0  0  0  0  0  0
    4.4589   -5.0677    3.1066 H   0  0  0  0  0  0  0  0  0  0  0  0
    6.3727   -4.3282    4.7369 H   0  0  0  0  0  0  0  0  0  0  0  0
    5.7665   -5.9687    5.0206 H   0  0  0  0  0  0  0  0  0  0  0  0
    7.3055   -5.6906    4.1214 H   0  0  0  0  0  0  0  0  0  0  0  0
    5.2586   -5.1989   -3.6554 H   0  0  0  0  0  0  0  0  0  0  0  0
    4.4162   -2.9292    0.8148 H   0  0  0  0  0  0  0  0  0  0  0  0
    2.7840   -2.6072    0.7932 H   0  0  0  0  0  0  0  0  0  0  0  0
    3.9194   -1.2284    0.8211 H   0  0  0  0  0  0  0  0  0  0  0  0
    5.6255    1.0155   -2.8990 H   0  0  0  0  0  0  0  0  0  0  0  0
    4.7064   -0.3703   -4.6331 H   0  0  0  0  0  0  0  0  0  0  0  0
    4.5609    1.3783   -5.1273 H   0  0  0  0  0  0  0  0  0  0  0  0
    3.1619    0.4964   -4.5329 H   0  0  0  0  0  0  0  0  0  0  0  0
    2.9743    2.7755   -3.1980 H   0  0  0  0  0  0  0  0  0  0  0  0
    4.8057    3.1999   -3.4838 H   0  0  0  0  0  0  0  0  0  0  0  0
    4.0073    2.8921   -1.9149 H   0  0  0  0  0  0  0  0  0  0  0  0
    6.4398   -0.6134    0.4455 H   0  0  0  0  0  0  0  0  0  0  0  0
    6.0878   -1.0650   -1.2199 H   0  0  0  0  0  0  0  0  0  0  0  0
    7.1359    0.2903   -1.0018 H   0  0  0  0  0  0  0  0  0  0  0  0
    6.3981    2.4632    2.7101 H   0  0  0  0  0  0  0  0  0  0  0  0
    4.9074    3.1960    2.8216 H   0  0  0  0  0  0  0  0  0  0  0  0
    6.0445    5.4387    1.9900 H   0  0  0  0  0  0  0  0  0  0  0  0
    7.2784    4.3424    4.4838 H   0  0  0  0  0  0  0  0  0  0  0  0
    6.4699    5.9272    4.2329 H   0  0  0  0  0  0  0  0  0  0  0  0
    5.5171    4.4360    4.3712 H   0  0  0  0  0  0  0  0  0  0  0  0
    8.6508    4.8074    2.8679 H   0  0  0  0  0  0  0  0  0  0  0  0
    8.3036    3.6103    1.5961 H   0  0  0  0  0  0  0  0  0  0  0  0
    8.1603    5.4053    1.2383 H   0  0  0  0  0  0  0  0  0  0  0  0
    6.2909    3.2928   -1.6082 H   0  0  0  0  0  0  0  0  0  0  0  0
    6.8802    4.6972   -0.6775 H   0  0  0  0  0  0  0  0  0  0  0  0
    5.5893    4.9004   -1.9765 H   0  0  0  0  0  0  0  0  0  0  0  0
    4.5366    6.5937   -2.0693 H   0  0  0  0  0  0  0  0  0  0  0  0
    2.9499    7.2608   -2.1539 H   0  0  0  0  0  0  0  0  0  0  0  0
    3.5537    8.5201    0.1235 H   0  0  0  0  0  0  0  0  0  0  0  0
    4.9554   10.1130   -1.2220 H   0  0  0  0  0  0  0  0  0  0  0  0
    4.8903    8.9448   -2.5826 H   0  0  0  0  0  0  0  0  0  0  0  0
    3.3979    9.6822   -1.9202 H   0  0  0  0  0  0  0  0  0  0  0  0
    5.5999    8.4396    1.0187 H   0  0  0  0  0  0  0  0  0  0  0  0
    5.8379    6.8868    0.2329 H   0  0  0  0  0  0  0  0  0  0  0  0
    6.4291    8.3975   -0.5213 H   0  0  0  0  0  0  0  0  0  0  0  0
    1.2179    6.3964    1.8009 H   0  0  0  0  0  0  0  0  0  0  0  0
    1.1672    7.8954    0.6910 H   0  0  0  0  0  0  0  0  0  0  0  0
    2.7051    7.1424    1.3688 H   0  0  0  0  0  0  0  0  0  0  0  0
   -0.1870    8.1883   -1.0263 H   0  0  0  0  0  0  0  0  0  0  0  0
   -1.6173    7.6708   -1.9718 H   0  0  0  0  0  0  0  0  0  0  0  0
    0.0419    7.2454   -2.5219 H   0  0  0  0  0  0  0  0  0  0  0  0
   -4.9303    3.8501   -3.9884 H   0  0  0  0  0  0  0  0  0  0  0  0
   -3.5252    4.8262   -4.2050 H   0  0  0  0  0  0  0  0  0  0  0  0
   -4.9585    5.5257   -3.5307 H   0  0  0  0  0  0  0  0  0  0  0  0
   -8.0873    3.1205    1.2750 H   0  0  0  0  0  0  0  0  0  0  0  0
   -6.9191    4.3768    0.8926 H   0  0  0  0  0  0  0  0  0  0  0  0
   -6.2576    2.3410    3.0894 H   0  0  0  0  0  0  0  0  0  0  0  0
   -5.0947    4.6652    3.8410 H   0  0  0  0  0  0  0  0  0  0  0  0
   -4.2947    3.5664    2.7521 H   0  0  0  0  0  0  0  0  0  0  0  0
   -5.1464    4.9900    2.1314 H   0  0  0  0  0  0  0  0  0  0  0  0
   -7.3637    3.7563    4.6437 H   0  0  0  0  0  0  0  0  0  0  0  0
   -7.6528    5.0608    3.4506 H   0  0  0  0  0  0  0  0  0  0  0  0
   -8.5241    3.5412    3.3170 H   0  0  0  0  0  0  0  0  0  0  0  0
   -4.2769    1.3337    1.6344 H   0  0  0  0  0  0  0  0  0  0  0  0
   -4.1038    0.2960    0.1992 H   0  0  0  0  0  0  0  0  0  0  0  0
   -4.8105   -0.3767    1.7408 H   0  0  0  0  0  0  0  0  0  0  0  0
   -8.5224   -3.1407    0.2706 H   0  0  0  0  0  0  0  0  0  0  0  0
  -10.3472   -0.8363    0.5012 H   0  0  0  0  0  0  0  0  0  0  0  0
  -10.6235   -2.5392    0.1504 H   0  0  0  0  0  0  0  0  0  0  0  0
   -9.8255   -1.5612   -1.0702 H   0  0  0  0  0  0  0  0  0  0  0  0
   -9.3207   -1.2916    2.4538 H   0  0  0  0  0  0  0  0  0  0  0  0
   -9.0723   -3.0581    2.5223 H   0  0  0  0  0  0  0  0  0  0  0  0
   -7.6446   -1.9281    2.5432 H   0  0  0  0  0  0  0  0  0  0  0  0
   -7.6578   -5.0580   -0.7142 H   0  0  0  0  0  0  0  0  0  0  0  0
   -7.1271   -4.9342   -2.3839 H   0  0  0  0  0  0  0  0  0  0  0  0
   -6.5923   -7.2605   -0.5318 H   0  0  0  0  0  0  0  0  0  0  0  0
   -8.1324   -8.3672   -1.9748 H   0  0  0  0  0  0  0  0  0  0  0  0
   -8.0949   -7.0501   -3.2000 H   0  0  0  0  0  0  0  0  0  0  0  0
   -8.9040   -6.7498   -1.6270 H   0  0  0  0  0  0  0  0  0  0  0  0
   -4.8369   -7.8524   -1.9003 H   0  0  0  0  0  0  0  0  0  0  0  0
   -6.0629   -8.0484   -3.1692 H   0  0  0  0  0  0  0  0  0  0  0  0
   -5.1761   -6.4815   -3.0088 H   0  0  0  0  0  0  0  0  0  0  0  0
   -5.4352   -4.1133    2.2017 H   0  0  0  0  0  0  0  0  0  0  0  0
   -6.2104   -5.7207    1.8684 H   0  0  0  0  0  0  0  0  0  0  0  0
   -6.8210   -4.2043    1.1272 H   0  0  0  0  0  0  0  0  0  0  0  0
   -2.2108   -7.9983    0.1384 H   0  0  0  0  0  0  0  0  0  0  0  0
   -0.6989   -8.3321    0.9980 H   0  0  0  0  0  0  0  0  0  0  0  0
   -2.2172   -8.1749    1.9271 H   0  0  0  0  0  0  0  0  0  0  0  0
  1  2  1  0
  2  3  1  0
  3  4  1  0
  4  5  2  0
  4  6  1  0
  6  7  1  0
  7  8  1  0
  8  9  2  0
  8 10  1  0
 10 11  1  0
 11 12  1  0
 12 13  2  0
 12 14  1  0
 14 15  1  0
 15 16  1  0
 16 17  2  0
 16 18  1  0
 18 19  1  0
 19 20  1  0
 20 21  2  0
 20 22  1  0
 22 23  1  0
 23 24  1  0
 24 25  2  0
 24 26  1  0
 26 27  1  0
 27 28  1  0
 28 29  2  0
 28 30  1  0
 30 31  1  0
 31 32  1  0
 32 33  2  0
 32 34  1  0
 34 35  1  0
 35 36  1  0
 36 37  2  0
 36 38  1  0
 38 39  1  0
 39 40  1  0
 40 41  2  0
 40 42  1  0
 42 43  1  0
 43 44  1  0
 44 45  2  0
 44 46  1  0
 43 47  1  0
 47 48  1  0
 48 49  1  0
 48 50  1  0
 50 51  1  0
 51 52  2  0
 52 53  1  0
 47 54  1  0
 42 55  1  0
 39 56  1  0
 56 57  1  0
 56 58  1  0
 38 59  1  0
 35 60  1  0
 60 61  1  0
 61 62  1  0
 61 63  1  0
 34 64  1  0
 31 65  1  0
 65 66  1  0
 66 67  1  0
 66 68  1  0
 30 69  1  0
 27 70  1  0
 23 71  1  0
 19 72  1  0
 72 73  1  0
 73 74  1  0
 73 75  1  0
 18 76  1  0
 15 77  1  0
 77 78  1  0
 77 79  1  0
 11 80  1  0
 80 81  1  0
 81 82  1  0
 81 83  1  0
 10 84  1  0
  6 85  1  0
 46  3  1  0
  1 86  1  0
  1 87  1  0
  1 88  1  0
  2 89  1  0
  2 90  1  0
  3 91  1  6
  7 92  1  0
  7 93  1  0
 11 94  1  6
 14 95  1  0
 15 96  1  6
 19 97  1  6
 22 98  1  0
 23 99  1  6
 26100  1  0
 27101  1  1
 31102  1  6
 35103  1  6
 39104  1  1
 43105  1  6
 46106  1  0
 47107  1  6
 48108  1  1
 49109  1  0
 49110  1  0
 49111  1  0
 50112  1  0
 50113  1  0
 51114  1  0
 52115  1  0
 53116  1  0
 53117  1  0
 53118  1  0
 54119  1  0
 55120  1  0
 55121  1  0
 55122  1  0
 56123  1  0
 57124  1  0
 57125  1  0
 57126  1  0
 58127  1  0
 58128  1  0
 58129  1  0
 59130  1  0
 59131  1  0
 59132  1  0
 60133  1  0
 60134  1  0
 61135  1  0
 62136  1  0
 62137  1  0
 62138  1  0
 63139  1  0
 63140  1  0
 63141  1  0
 64142  1  0
 64143  1  0
 64144  1  0
 65145  1  0
 65146  1  0
 66147  1  0
 67148  1  0
 67149  1  0
 67150  1  0
 68151  1  0
 68152  1  0
 68153  1  0
 69154  1  0
 69155  1  0
 69156  1  0
 70157  1  0
 70158  1  0
 70159  1  0
 71160  1  0
 71161  1  0
 71162  1  0
 72163  1  0
 72164  1  0
 73165  1  0
 74166  1  0
 74167  1  0
 74168  1  0
 75169  1  0
 75170  1  0
 75171  1  0
 76172  1  0
 76173  1  0
 76174  1  0
 77175  1  0
 78176  1  0
 78177  1  0
 78178  1  0
 79179  1  0
 79180  1  0
 79181  1  0
 80182  1  0
 80183  1  0
 81184  1  0
 82185  1  0
 82186  1  0
 82187  1  0
 83188  1  0
 83189  1  0
 83190  1  0
 84191  1  0
 84192  1  0
 84193  1  0
 85194  1  0
 85195  1  0
 85196  1  0
M  END
$$$$
