
     RDKit          3D

144147  0  0  0  0  0  0  0  0999 V2000
   -2.5700   -5.9376    2.1701 C   0  0  0  0  0  0  0  0  0  0  0  0
   -2.7766   -4.5209    1.6132 C   0  0  2  0  0  0  0  0  0  0  0  0
   -4.2660   -4.2347    1.4353 C   0  0  0  0  0  0  0  0  0  0  0  0
   -4.7712   -4.8568    0.1570 C   0  0  0  0  0  0  0  0  0  0  0  0
   -3.9622   -4.3774   -1.0483 C   0  0  1  0  0  0  0  0  0  0  0  0
   -4.7236   -3.7536   -2.2517 C   0  0  0  0  0  0  0  0  0  0  0  0
   -6.2134   -3.3497   -2.1183 C   0  0  1  0  0  0  0  0  0  0  0  0
   -6.5325   -1.8859   -1.7371 C   0  0  0  0  0  0  0  0  0  0  0  0
   -5.6352   -1.1175   -1.0824 C   0  0  0  0  0  0  0  0  0  0  0  0
   -5.8053    0.1724   -0.4605 C   0  0  0  0  0  0  0  0  0  0  0  0
   -6.3788    1.2592   -0.9961 C   0  0  0  0  0  0  0  0  0  0  0  0
   -6.5882    2.5262   -0.3566 C   0  0  0  0  0  0  0  0  0  0  0  0
   -5.9217    3.0547    0.7075 C   0  0  0  0  0  0  0  0  0  0  0  0
   -6.2173    4.4570    1.1824 C   0  0  2  0  0  0  0  0  0  0  0  0
   -5.0408    5.4044    0.8682 C   0  0  0  0  0  0  0  0  0  0  0  0
   -4.0179    5.8326    1.9542 C   0  0  2  0  0  0  0  0  0  0  0  0
   -2.8841    6.5948    1.2500 C   0  0  0  0  0  0  0  0  0  0  0  0
   -3.0821    7.8019    1.0071 O   0  0  0  0  0  0  0  0  0  0  0  0
   -1.5314    5.9261    0.9179 C   0  0  1  0  0  0  0  0  0  0  0  0
   -1.6460    4.6925   -0.0013 C   0  0  1  0  0  0  0  0  0  0  0  0
   -0.3024    4.0134   -0.2867 C   0  0  0  0  0  0  0  0  0  0  0  0
    0.1175    3.8552   -1.5627 C   0  0  0  0  0  0  0  0  0  0  0  0
    1.3393    3.1957   -2.1743 C   0  0  2  0  0  0  0  0  0  0  0  0
    2.2985    2.5441   -1.1796 C   0  0  0  0  0  0  0  0  0  0  0  0
    3.2550    3.1680   -0.7065 O   0  0  0  0  0  0  0  0  0  0  0  0
    2.0159    1.1100   -0.7656 C   0  0  0  0  0  0  0  0  0  0  0  0
    2.7152    0.0177   -1.5624 C   0  0  2  0  0  0  0  0  0  0  0  0
    2.6952   -1.1313   -0.6719 O   0  0  0  0  0  0  0  0  0  0  0  0
    1.9074   -2.2266   -0.8195 C   0  0  0  0  0  0  0  0  0  0  0  0
    1.1156   -2.4377   -1.7290 O   0  0  0  0  0  0  0  0  0  0  0  0
    2.3701   -3.1943    0.3001 C   0  0  2  0  0  0  0  0  0  0  0  0
    3.4653   -4.0235   -0.4317 C   0  0  0  0  0  0  0  0  0  0  0  0
    4.2415   -4.9941    0.4524 C   0  0  0  0  0  0  0  0  0  0  0  0
    3.9123   -4.7935    1.9092 C   0  0  0  0  0  0  0  0  0  0  0  0
    2.4095   -4.8077    2.1617 C   0  0  0  0  0  0  0  0  0  0  0  0
    1.6018   -4.1235    1.1370 N   0  0  0  0  0  0  0  0  0  0  0  0
    0.2915   -3.8864    1.6022 C   0  0  0  0  0  0  0  0  0  0  0  0
   -0.0855   -4.2424    2.7214 O   0  0  0  0  0  0  0  0  0  0  0  0
   -0.7639   -3.1989    0.7173 C   0  0  0  0  0  0  0  0  0  0  0  0
   -0.6513   -2.0043    0.4745 O   0  0  0  0  0  0  0  0  0  0  0  0
   -1.9580   -4.1496    0.3111 C   0  0  2  0  0  0  0  0  0  0  0  0
   -2.8450   -3.5304   -0.6527 O   0  0  0  0  0  0  0  0  0  0  0  0
   -1.4291   -5.3029   -0.3292 O   0  0  0  0  0  0  0  0  0  0  0  0
    4.2224    0.3020   -1.8899 C   0  0  2  0  0  0  0  0  0  0  0  0
    4.6756   -0.7000   -2.9585 C   0  0  0  0  0  0  0  0  0  0  0  0
    5.1102    0.2743   -0.6078 C   0  0  0  0  0  0  0  0  0  0  0  0
    6.6555    0.4953   -0.6607 C   0  0  2  0  0  0  0  0  0  0  0  0
    7.4093   -0.6735   -1.3276 C   0  0  0  0  0  0  0  0  0  0  0  0
    8.9133   -0.6472   -1.0864 C   0  0  0  0  0  0  0  0  0  0  0  0
    9.2525   -0.6345    0.3959 C   0  0  2  0  0  0  0  0  0  0  0  0
    8.6466    0.6162    1.0618 C   0  0  1  0  0  0  0  0  0  0  0  0
    7.1334    0.6884    0.8007 C   0  0  0  0  0  0  0  0  0  0  0  0
    8.7870    0.5245    2.4988 O   0  0  0  0  0  0  0  0  0  0  0  0
    9.9702    1.1435    2.9916 C   0  0  0  0  0  0  0  0  0  0  0  0
   10.6773   -0.6544    0.5237 O   0  0  0  0  0  0  0  0  0  0  0  0
    2.0989    4.2359   -3.0013 C   0  0  0  0  0  0  0  0  0  0  0  0
    0.4375    3.5144    0.9324 C   0  0  0  0  0  0  0  0  0  0  0  0
   -2.4587    3.6585    0.5424 O   0  0  0  0  0  0  0  0  0  0  0  0
   -0.7060    6.9064    0.2319 O   0  0  0  0  0  0  0  0  0  0  0  0
    0.4842    7.2383    0.9405 C   0  0  0  0  0  0  0  0  0  0  0  0
   -3.5391    4.7874    2.9684 C   0  0  0  0  0  0  0  0  0  0  0  0
   -6.7704    4.4962    2.6054 C   0  0  0  0  0  0  0  0  0  0  0  0
   -7.9375   -1.4733   -2.0791 C   0  0  0  0  0  0  0  0  0  0  0  0
   -6.8437   -3.6634   -3.3741 O   0  0  0  0  0  0  0  0  0  0  0  0
   -7.7494   -4.7691   -3.2401 C   0  0  0  0  0  0  0  0  0  0  0  0
   -1.9843   -5.9200    3.0939 H   0  0  0  0  0  0  0  0  0  0  0  0
   -2.0621   -6.6064    1.4756 H   0  0  0  0  0  0  0  0  0  0  0  0
   -3.5063   -6.4280    2.4504 H   0  0  0  0  0  0  0  0  0  0  0  0
   -2.4773   -3.8344    2.4119 H   0  0  0  0  0  0  0  0  0  0  0  0
   -4.4236   -3.1455    1.3871 H   0  0  0  0  0  0  0  0  0  0  0  0
   -4.8469   -4.5990    2.2915 H   0  0  0  0  0  0  0  0  0  0  0  0
   -4.7049   -5.9449    0.2300 H   0  0  0  0  0  0  0  0  0  0  0  0
   -5.8323   -4.6613    0.1026 H   0  0  0  0  0  0  0  0  0  0  0  0
   -3.4906   -5.2770   -1.4603 H   0  0  0  0  0  0  0  0  0  0  0  0
   -4.1577   -2.8934   -2.6517 H   0  0  0  0  0  0  0  0  0  0  0  0
   -4.6761   -4.4857   -3.0723 H   0  0  0  0  0  0  0  0  0  0  0  0
   -6.7277   -3.9532   -1.3627 H   0  0  0  0  0  0  0  0  0  0  0  0
   -4.6561   -1.5433   -0.8485 H   0  0  0  0  0  0  0  0  0  0  0  0
   -5.3448    0.2157    0.5311 H   0  0  0  0  0  0  0  0  0  0  0  0
   -6.8015    1.1998   -2.0091 H   0  0  0  0  0  0  0  0  0  0  0  0
   -7.3531    3.1207   -0.8634 H   0  0  0  0  0  0  0  0  0  0  0  0
   -5.1392    2.4886    1.2019 H   0  0  0  0  0  0  0  0  0  0  0  0
   -7.0432    4.8244    0.5525 H   0  0  0  0  0  0  0  0  0  0  0  0
   -5.4917    6.3338    0.4971 H   0  0  0  0  0  0  0  0  0  0  0  0
   -4.5088    5.0250   -0.0154 H   0  0  0  0  0  0  0  0  0  0  0  0
   -4.5212    6.6064    2.5636 H   0  0  0  0  0  0  0  0  0  0  0  0
   -1.0876    5.6811    1.8881 H   0  0  0  0  0  0  0  0  0  0  0  0
   -2.1052    5.0179   -0.9413 H   0  0  0  0  0  0  0  0  0  0  0  0
   -0.5365    4.2559   -2.3451 H   0  0  0  0  0  0  0  0  0  0  0  0
    1.0146    2.4031   -2.8643 H   0  0  0  0  0  0  0  0  0  0  0  0
    0.9234    0.9433   -0.7971 H   0  0  0  0  0  0  0  0  0  0  0  0
    2.2709    1.0294    0.2989 H   0  0  0  0  0  0  0  0  0  0  0  0
    2.1500   -0.1926   -2.4801 H   0  0  0  0  0  0  0  0  0  0  0  0
    2.8148   -2.5375    1.0516 H   0  0  0  0  0  0  0  0  0  0  0  0
    3.0142   -4.6019   -1.2512 H   0  0  0  0  0  0  0  0  0  0  0  0
    4.1727   -3.3430   -0.9214 H   0  0  0  0  0  0  0  0  0  0  0  0
    4.0189   -6.0218    0.1565 H   0  0  0  0  0  0  0  0  0  0  0  0
    5.3139   -4.8554    0.2975 H   0  0  0  0  0  0  0  0  0  0  0  0
    4.3242   -3.8261    2.2360 H   0  0  0  0  0  0  0  0  0  0  0  0
    4.3985   -5.5547    2.5326 H   0  0  0  0  0  0  0  0  0  0  0  0
    2.0231   -5.8303    2.2604 H   0  0  0  0  0  0  0  0  0  0  0  0
    2.2346   -4.3331    3.1345 H   0  0  0  0  0  0  0  0  0  0  0  0
   -0.8397   -4.9836   -1.0445 H   0  0  0  0  0  0  0  0  0  0  0  0
    4.3017    1.2993   -2.3467 H   0  0  0  0  0  0  0  0  0  0  0  0
    4.8669   -1.6874   -2.5362 H   0  0  0  0  0  0  0  0  0  0  0  0
    5.5622   -0.3487   -3.4811 H   0  0  0  0  0  0  0  0  0  0  0  0
    3.9119   -0.8181   -3.7374 H   0  0  0  0  0  0  0  0  0  0  0  0
    4.9503   -0.6761   -0.0861 H   0  0  0  0  0  0  0  0  0  0  0  0
    4.7080    1.0483    0.0557 H   0  0  0  0  0  0  0  0  0  0  0  0
    6.8717    1.4190   -1.2211 H   0  0  0  0  0  0  0  0  0  0  0  0
    7.2586   -0.6602   -2.4055 H   0  0  0  0  0  0  0  0  0  0  0  0
    7.0008   -1.6245   -0.9609 H   0  0  0  0  0  0  0  0  0  0  0  0
    9.3788   -1.5248   -1.5626 H   0  0  0  0  0  0  0  0  0  0  0  0
    9.3636    0.2261   -1.5807 H   0  0  0  0  0  0  0  0  0  0  0  0
    8.8643   -1.5317    0.8939 H   0  0  0  0  0  0  0  0  0  0  0  0
    9.1388    1.5292    0.6965 H   0  0  0  0  0  0  0  0  0  0  0  0
    6.6396   -0.0574    1.4402 H   0  0  0  0  0  0  0  0  0  0  0  0
    6.7665    1.6538    1.1798 H   0  0  0  0  0  0  0  0  0  0  0  0
   10.8647    0.7192    2.5393 H   0  0  0  0  0  0  0  0  0  0  0  0
    9.9317    2.2225    2.8257 H   0  0  0  0  0  0  0  0  0  0  0  0
   10.0153    0.9661    4.0705 H   0  0  0  0  0  0  0  0  0  0  0  0
   10.9594   -1.5826    0.3669 H   0  0  0  0  0  0  0  0  0  0  0  0
    1.4731    4.6733   -3.7875 H   0  0  0  0  0  0  0  0  0  0  0  0
    2.9757    3.8003   -3.4926 H   0  0  0  0  0  0  0  0  0  0  0  0
    2.4576    5.0681   -2.3803 H   0  0  0  0  0  0  0  0  0  0  0  0
    1.4633    3.8975    0.9512 H   0  0  0  0  0  0  0  0  0  0  0  0
   -0.0399    3.8312    1.8638 H   0  0  0  0  0  0  0  0  0  0  0  0
    0.4471    2.4196    0.9536 H   0  0  0  0  0  0  0  0  0  0  0  0
   -2.5052    2.9597   -0.1426 H   0  0  0  0  0  0  0  0  0  0  0  0
    1.0109    7.9945    0.3579 H   0  0  0  0  0  0  0  0  0  0  0  0
    0.2512    7.6434    1.9279 H   0  0  0  0  0  0  0  0  0  0  0  0
    1.1396    6.3686    1.0253 H   0  0  0  0  0  0  0  0  0  0  0  0
   -3.5602    3.7696    2.5735 H   0  0  0  0  0  0  0  0  0  0  0  0
   -4.1924    4.8049    3.8472 H   0  0  0  0  0  0  0  0  0  0  0  0
   -2.5306    5.0033    3.3443 H   0  0  0  0  0  0  0  0  0  0  0  0
   -7.7186    3.9415    2.6586 H   0  0  0  0  0  0  0  0  0  0  0  0
   -6.0964    4.0347    3.3320 H   0  0  0  0  0  0  0  0  0  0  0  0
   -6.9815    5.5279    2.8994 H   0  0  0  0  0  0  0  0  0  0  0  0
   -8.1826   -0.4388   -1.8222 H   0  0  0  0  0  0  0  0  0  0  0  0
   -8.1152   -1.5855   -3.1603 H   0  0  0  0  0  0  0  0  0  0  0  0
   -8.6620   -2.0992   -1.5498 H   0  0  0  0  0  0  0  0  0  0  0  0
   -8.5879   -4.4938   -2.5888 H   0  0  0  0  0  0  0  0  0  0  0  0
   -7.2377   -5.6540   -2.8410 H   0  0  0  0  0  0  0  0  0  0  0  0
   -8.1395   -5.0232   -4.2302 H   0  0  0  0  0  0  0  0  0  0  0  0
  1  2  1  0
  2  3  1  0
  3  4  1  0
  4  5  1  0
  5  6  1  0
  6  7  1  0
  7  8  1  0
  8  9  2  0
  9 10  1  0
 10 11  2  0
 11 12  1  0
 12 13  2  0
 13 14  1  0
 14 15  1  0
 15 16  1  0
 16 17  1  0
 17 18  2  0
 17 19  1  0
 19 20  1  0
 20 21  1  0
 21 22  2  0
 22 23  1  0
 23 24  1  0
 24 25  2  0
 24 26  1  0
 26 27  1  0
 27 28  1  0
 28 29  1  0
 29 30  2  0
 29 31  1  0
 31 32  1  0
 32 33  1  0
 33 34  1  0
 34 35  1  0
 35 36  1  0
 36 37  1  0
 37 38  2  0
 37 39  1  0
 39 40  2  0
 39 41  1  0
 41 42  1  0
 41 43  1  6
 27 44  1  0
 44 45  1  0
 44 46  1  0
 46 47  1  0
 47 48  1  0
 48 49  1  0
 49 50  1  0
 50 51  1  0
 51 52  1  0
 51 53  1  0
 53 54  1  0
 50 55  1  0
 23 56  1  0
 21 57  1  0
 20 58  1  0
 19 59  1  0
 59 60  1  0
 16 61  1  0
 14 62  1  0
  8 63  1  0
  7 64  1  0
 64 65  1  0
 41  2  1  0
 42  5  1  0
 36 31  1  0
 52 47  1  0
  1 66  1  0
  1 67  1  0
  1 68  1  0
  2 69  1  1
  3 70  1  0
  3 71  1  0
  4 72  1  0
  4 73  1  0
  5 74  1  6
  6 75  1  0
  6 76  1  0
  7 77  1  1
  9 78  1  0
 10 79  1  0
 11 80  1  0
 12 81  1  0
 13 82  1  0
 14 83  1  6
 15 84  1  0
 15 85  1  0
 16 86  1  1
 19 87  1  1
 20 88  1  6
 22 89  1  0
 23 90  1  6
 26 91  1  0
 26 92  1  0
 27 93  1  6
 31 94  1  1
 32 95  1  0
 32 96  1  0
 33 97  1  0
 33 98  1  0
 34 99  1  0
 34100  1  0
 35101  1  0
 35102  1  0
 43103  1  0
 44104  1  6
 45105  1  0
 45106  1  0
 45107  1  0
 46108  1  0
 46109  1  0
 47110  1  6
 48111  1  0
 48112  1  0
 49113  1  0
 49114  1  0
 50115  1  1
 51116  1  6
 52117  1  0
 52118  1  0
 54119  1  0
 54120  1  0
 54121  1  0
 55122  1  0
 56123  1  0
 56124  1  0
 56125  1  0
 57126  1  0
 57127  1  0
 57128  1  0
 58129  1  0
 60130  1  0
 60131  1  0
 60132  1  0
 61133  1  0
 61134  1  0
 61135  1  0
 62136  1  0
 62137  1  0
 62138  1  0
 63139  1  0
 63140  1  0
 63141  1  0
 65142  1  0
 65143  1  0
 65144  1  0
M  END
$$$$
