
     RDKit          3D

 70 73  0  0  0  0  0  0  0  0999 V2000
    4.1754    1.6566   -0.3024 C   0  0  0  0  0  0  0  0  0  0  0  0
    3.4790    0.3183   -0.0336 C   0  0  2  0  0  0  0  0  0  0  0  0
    4.3382   -0.8720   -0.4408 C   0  0  0  0  0  0  0  0  0  0  0  0
    5.2942   -0.8953   -1.3872 C   0  0  0  0  0  0  0  0  0  0  0  0
    6.1547   -2.0620   -1.7905 C   0  0  2  0  0  0  0  0  0  0  0  0
    5.9240   -3.3666   -1.0718 C   0  0  0  0  0  0  0  0  0  0  0  0
    6.9817   -4.4404   -0.9389 C   0  0  0  0  0  0  0  0  0  0  0  0
    6.5524   -3.6559    0.2710 C   0  0  0  0  0  0  0  0  0  0  0  0
    7.5010   -1.6232   -1.6330 O   0  0  0  0  0  0  0  0  0  0  0  0
    2.0756    0.2120   -0.6932 C   0  0  1  0  0  0  0  0  0  0  0  0
    1.3688   -1.1360   -0.3620 C   0  0  0  0  0  0  0  0  0  0  0  0
   -0.1390   -0.8616   -0.3221 C   0  0  0  0  0  0  0  0  0  0  0  0
   -0.2781    0.5487   -0.8900 C   0  0  2  0  0  0  0  0  0  0  0  0
    0.9876    1.2793   -0.3560 C   0  0  2  0  0  0  0  0  0  0  0  0
    1.1130    2.6094   -1.1319 C   0  0  0  0  0  0  0  0  0  0  0  0
   -0.1594    3.4655   -1.0285 C   0  0  0  0  0  0  0  0  0  0  0  0
   -1.4375    2.7042   -1.4034 C   0  0  0  0  0  0  0  0  0  0  0  0
   -1.5424    1.3640   -0.6958 C   0  0  0  0  0  0  0  0  0  0  0  0
   -2.6035    0.9219    0.0074 C   0  0  0  0  0  0  0  0  0  0  0  0
   -3.8575    1.6173    0.2244 C   0  0  0  0  0  0  0  0  0  0  0  0
   -4.8808    1.2072    1.0025 C   0  0  0  0  0  0  0  0  0  0  0  0
   -6.1788    1.9951    1.0497 C   0  0  0  0  0  0  0  0  0  0  0  0
   -7.4242    1.1210    1.2882 C   0  0  2  0  0  0  0  0  0  0  0  0
   -7.2185   -0.2955    0.7526 C   0  0  0  0  0  0  0  0  0  0  0  0
   -6.0353   -0.9758    1.4530 C   0  0  1  0  0  0  0  0  0  0  0  0
   -4.9088   -0.0160    1.8026 C   0  0  0  0  0  0  0  0  0  0  0  0
   -4.0525   -0.1844    2.8257 C   0  0  0  0  0  0  0  0  0  0  0  0
   -6.5447   -1.5933    2.6367 O   0  0  0  0  0  0  0  0  0  0  0  0
   -8.5467    1.7171    0.6350 O   0  0  0  0  0  0  0  0  0  0  0  0
    0.9197    1.5550    1.1663 C   0  0  0  0  0  0  0  0  0  0  0  0
    5.2236    1.6311    0.0176 H   0  0  0  0  0  0  0  0  0  0  0  0
    3.7067    2.4648    0.2643 H   0  0  0  0  0  0  0  0  0  0  0  0
    4.1490    1.9222   -1.3645 H   0  0  0  0  0  0  0  0  0  0  0  0
    3.3662    0.2422    1.0563 H   0  0  0  0  0  0  0  0  0  0  0  0
    4.1394   -1.7817    0.1234 H   0  0  0  0  0  0  0  0  0  0  0  0
    5.5028    0.0097   -1.9531 H   0  0  0  0  0  0  0  0  0  0  0  0
    5.9931   -2.2336   -2.8618 H   0  0  0  0  0  0  0  0  0  0  0  0
    4.9097   -3.7193   -1.2369 H   0  0  0  0  0  0  0  0  0  0  0  0
    7.9841   -4.2728   -1.3107 H   0  0  0  0  0  0  0  0  0  0  0  0
    6.6618   -5.4749   -1.0071 H   0  0  0  0  0  0  0  0  0  0  0  0
    5.9443   -4.1556    1.0161 H   0  0  0  0  0  0  0  0  0  0  0  0
    7.2438   -2.9282    0.6824 H   0  0  0  0  0  0  0  0  0  0  0  0
    8.0578   -2.2757   -2.0845 H   0  0  0  0  0  0  0  0  0  0  0  0
    2.2274    0.2292   -1.7841 H   0  0  0  0  0  0  0  0  0  0  0  0
    1.6043   -1.8848   -1.1272 H   0  0  0  0  0  0  0  0  0  0  0  0
    1.6879   -1.5422    0.6047 H   0  0  0  0  0  0  0  0  0  0  0  0
   -0.4940   -0.9308    0.7122 H   0  0  0  0  0  0  0  0  0  0  0  0
   -0.6973   -1.5973   -0.9107 H   0  0  0  0  0  0  0  0  0  0  0  0
   -0.1768    0.4343   -1.9827 H   0  0  0  0  0  0  0  0  0  0  0  0
    1.3105    2.4038   -2.1919 H   0  0  0  0  0  0  0  0  0  0  0  0
    1.9548    3.2056   -0.7700 H   0  0  0  0  0  0  0  0  0  0  0  0
   -0.0570    4.3389   -1.6839 H   0  0  0  0  0  0  0  0  0  0  0  0
   -0.2571    3.8592   -0.0095 H   0  0  0  0  0  0  0  0  0  0  0  0
   -2.2900    3.3584   -1.2048 H   0  0  0  0  0  0  0  0  0  0  0  0
   -1.4378    2.5199   -2.4857 H   0  0  0  0  0  0  0  0  0  0  0  0
   -2.5472   -0.0661    0.4567 H   0  0  0  0  0  0  0  0  0  0  0  0
   -3.9942    2.5486   -0.3193 H   0  0  0  0  0  0  0  0  0  0  0  0
   -6.1183    2.7430    1.8511 H   0  0  0  0  0  0  0  0  0  0  0  0
   -6.3072    2.5643    0.1193 H   0  0  0  0  0  0  0  0  0  0  0  0
   -7.6485    1.0894    2.3616 H   0  0  0  0  0  0  0  0  0  0  0  0
   -7.0384   -0.2454   -0.3299 H   0  0  0  0  0  0  0  0  0  0  0  0
   -8.1393   -0.8781    0.8803 H   0  0  0  0  0  0  0  0  0  0  0  0
   -5.6556   -1.7724    0.8017 H   0  0  0  0  0  0  0  0  0  0  0  0
   -4.0786   -1.0577    3.4665 H   0  0  0  0  0  0  0  0  0  0  0  0
   -3.2998    0.5640    3.0603 H   0  0  0  0  0  0  0  0  0  0  0  0
   -5.8766   -2.2381    2.9235 H   0  0  0  0  0  0  0  0  0  0  0  0
   -9.3301    1.1955    0.8831 H   0  0  0  0  0  0  0  0  0  0  0  0
    0.9265    0.6330    1.7567 H   0  0  0  0  0  0  0  0  0  0  0  0
    0.0178    2.1057    1.4499 H   0  0  0  0  0  0  0  0  0  0  0  0
    1.7745    2.1536    1.4967 H   0  0  0  0  0  0  0  0  0  0  0  0
  1  2  1  0
  2  3  1  0
  3  4  2  0
  4  5  1  0
  5  6  1  0
  6  7  1  0
  7  8  1  0
  5  9  1  0
  2 10  1  0
 10 11  1  0
 11 12  1  0
 12 13  1  0
 13 14  1  0
 14 15  1  0
 15 16  1  0
 16 17  1  0
 17 18  1  0
 18 19  2  0
 19 20  1  0
 20 21  2  0
 21 22  1  0
 22 23  1  0
 23 24  1  0
 24 25  1  0
 25 26  1  0
 26 27  2  0
 25 28  1  0
 23 29  1  0
 14 30  1  1
  8  6  1  0
 14 10  1  0
 18 13  1  0
 26 21  1  0
  1 31  1  0
  1 32  1  0
  1 33  1  0
  2 34  1  1
  3 35  1  0
  4 36  1  0
  5 37  1  6
  6 38  1  0
  7 39  1  0
  7 40  1  0
  8 41  1  0
  8 42  1  0
  9 43  1  0
 10 44  1  6
 11 45  1  0
 11 46  1  0
 12 47  1  0
 12 48  1  0
 13 49  1  6
 15 50  1  0
 15 51  1  0
 16 52  1  0
 16 53  1  0
 17 54  1  0
 17 55  1  0
 19 56  1  0
 20 57  1  0
 22 58  1  0
 22 59  1  0
 23 60  1  1
 24 61  1  0
 24 62  1  0
 25 63  1  6
 27 64  1  0
 27 65  1  0
 28 66  1  0
 29 67  1  0
 30 68  1  0
 30 69  1  0
 30 70  1  0
M  END
$$$$
