
     RDKit          3D

 81 83  0  0  0  0  0  0  0  0999 V2000
    4.2523    2.8093    1.2160 C   0  0  0  0  0  0  0  0  0  0  0  0
    5.4551    2.6697    0.2911 C   0  0  0  0  0  0  0  0  0  0  0  0
    5.3007    1.6738   -0.9050 C   0  0  0  0  0  0  0  0  0  0  0  0
    6.6062    1.7699   -1.7404 C   0  0  0  0  0  0  0  0  0  0  0  0
    6.6118    1.1218   -3.1225 C   0  0  0  0  0  0  0  0  0  0  0  0
    4.9812    0.2495   -0.3828 C   0  0  0  0  0  0  0  0  0  0  0  0
    4.5592   -0.7988   -1.4246 C   0  0  0  0  0  0  0  0  0  0  0  0
    4.1393   -2.1249   -0.7745 C   0  0  0  0  0  0  0  0  0  0  0  0
    2.7868   -2.0593   -0.3110 O   0  0  0  0  0  0  0  0  0  0  0  0
    2.6313   -1.9300    1.1067 C   0  0  2  0  0  0  0  0  0  0  0  0
    2.8227   -3.2907    1.7757 C   0  0  0  0  0  0  0  0  0  0  0  0
    1.2656   -1.2744    1.4378 C   0  0  1  0  0  0  0  0  0  0  0  0
    1.1310    0.1216    0.7663 C   0  0  0  0  0  0  0  0  0  0  0  0
   -0.3701    0.3785    0.5674 C   0  0  0  0  0  0  0  0  0  0  0  0
   -1.0580   -0.7785    1.2959 C   0  0  2  0  0  0  0  0  0  0  0  0
   -0.0864   -1.9748    1.0857 C   0  0  2  0  0  0  0  0  0  0  0  0
   -0.5174   -3.0776    2.0737 C   0  0  0  0  0  0  0  0  0  0  0  0
   -1.9732   -3.5080    1.8497 C   0  0  0  0  0  0  0  0  0  0  0  0
   -2.9781   -2.3378    1.8072 C   0  0  0  0  0  0  0  0  0  0  0  0
   -2.5202   -1.1058    1.0435 C   0  0  0  0  0  0  0  0  0  0  0  0
   -3.3228   -0.2809    0.3190 C   0  0  0  0  0  0  0  0  0  0  0  0
   -4.7506   -0.3919    0.1023 C   0  0  0  0  0  0  0  0  0  0  0  0
   -5.5463    0.4898   -0.5491 C   0  0  0  0  0  0  0  0  0  0  0  0
   -7.0488    0.2737   -0.5830 C   0  0  0  0  0  0  0  0  0  0  0  0
   -7.8747    1.5793   -0.5448 C   0  0  2  0  0  0  0  0  0  0  0  0
   -7.1066    2.7400    0.0939 C   0  0  0  0  0  0  0  0  0  0  0  0
   -5.7872    2.9986   -0.6441 C   0  0  1  0  0  0  0  0  0  0  0  0
   -5.1231    1.7397   -1.1797 C   0  0  0  0  0  0  0  0  0  0  0  0
   -4.2536    1.7574   -2.2161 C   0  0  0  0  0  0  0  0  0  0  0  0
   -6.0264    3.9212   -1.7076 O   0  0  0  0  0  0  0  0  0  0  0  0
   -9.0986    1.3644    0.1673 O   0  0  0  0  0  0  0  0  0  0  0  0
   -0.1077   -2.5220   -0.3597 C   0  0  0  0  0  0  0  0  0  0  0  0
    4.1873    2.1184   -1.6812 O   0  0  0  0  0  0  0  0  0  0  0  0
    4.4293    3.6154    1.9396 H   0  0  0  0  0  0  0  0  0  0  0  0
    3.3373    3.0532    0.6662 H   0  0  0  0  0  0  0  0  0  0  0  0
    4.0760    1.8983    1.8012 H   0  0  0  0  0  0  0  0  0  0  0  0
    6.3280    2.3980    0.8947 H   0  0  0  0  0  0  0  0  0  0  0  0
    5.6467    3.6712   -0.1118 H   0  0  0  0  0  0  0  0  0  0  0  0
    6.8174    2.8334   -1.9182 H   0  0  0  0  0  0  0  0  0  0  0  0
    7.4519    1.3787   -1.1645 H   0  0  0  0  0  0  0  0  0  0  0  0
    7.4089    1.5616   -3.7352 H   0  0  0  0  0  0  0  0  0  0  0  0
    6.8240    0.0533   -3.0620 H   0  0  0  0  0  0  0  0  0  0  0  0
    5.6704    1.2679   -3.6560 H   0  0  0  0  0  0  0  0  0  0  0  0
    4.1385    0.3329    0.3026 H   0  0  0  0  0  0  0  0  0  0  0  0
    5.8301   -0.1310    0.1962 H   0  0  0  0  0  0  0  0  0  0  0  0
    3.7344   -0.4127   -2.0353 H   0  0  0  0  0  0  0  0  0  0  0  0
    5.3985   -1.0240   -2.0780 H   0  0  0  0  0  0  0  0  0  0  0  0
    4.8373   -2.4259    0.0128 H   0  0  0  0  0  0  0  0  0  0  0  0
    4.1540   -2.9055   -1.5436 H   0  0  0  0  0  0  0  0  0  0  0  0
    3.4087   -1.2614    1.4972 H   0  0  0  0  0  0  0  0  0  0  0  0
    2.5708   -3.2542    2.8412 H   0  0  0  0  0  0  0  0  0  0  0  0
    2.2246   -4.0615    1.2826 H   0  0  0  0  0  0  0  0  0  0  0  0
    3.8661   -3.6230    1.6998 H   0  0  0  0  0  0  0  0  0  0  0  0
    1.2736   -1.1032    2.5244 H   0  0  0  0  0  0  0  0  0  0  0  0
    1.6342    0.1786   -0.2051 H   0  0  0  0  0  0  0  0  0  0  0  0
    1.5813    0.8988    1.4024 H   0  0  0  0  0  0  0  0  0  0  0  0
   -0.6661    1.3560    0.9621 H   0  0  0  0  0  0  0  0  0  0  0  0
   -0.5973    0.3776   -0.5064 H   0  0  0  0  0  0  0  0  0  0  0  0
   -1.0361   -0.5035    2.3656 H   0  0  0  0  0  0  0  0  0  0  0  0
    0.1241   -3.9622    1.9819 H   0  0  0  0  0  0  0  0  0  0  0  0
   -0.4090   -2.7287    3.1090 H   0  0  0  0  0  0  0  0  0  0  0  0
   -2.0468   -4.0872    0.9197 H   0  0  0  0  0  0  0  0  0  0  0  0
   -2.2709   -4.2036    2.6484 H   0  0  0  0  0  0  0  0  0  0  0  0
   -3.9177   -2.7425    1.4036 H   0  0  0  0  0  0  0  0  0  0  0  0
   -3.1883   -2.0284    2.8429 H   0  0  0  0  0  0  0  0  0  0  0  0
   -2.8655    0.6007   -0.1181 H   0  0  0  0  0  0  0  0  0  0  0  0
   -5.2269   -1.2679    0.5428 H   0  0  0  0  0  0  0  0  0  0  0  0
   -7.3041   -0.2637   -1.5078 H   0  0  0  0  0  0  0  0  0  0  0  0
   -7.3625   -0.3791    0.2425 H   0  0  0  0  0  0  0  0  0  0  0  0
   -8.1572    1.8515   -1.5703 H   0  0  0  0  0  0  0  0  0  0  0  0
   -6.9082    2.5021    1.1448 H   0  0  0  0  0  0  0  0  0  0  0  0
   -7.7366    3.6360    0.0960 H   0  0  0  0  0  0  0  0  0  0  0  0
   -5.0967    3.4957    0.0488 H   0  0  0  0  0  0  0  0  0  0  0  0
   -3.8148    0.8469   -2.6096 H   0  0  0  0  0  0  0  0  0  0  0  0
   -3.9638    2.6904   -2.6872 H   0  0  0  0  0  0  0  0  0  0  0  0
   -6.6476    3.4942   -2.3266 H   0  0  0  0  0  0  0  0  0  0  0  0
   -8.8807    1.2595    1.1119 H   0  0  0  0  0  0  0  0  0  0  0  0
   -1.1104   -2.8248   -0.6789 H   0  0  0  0  0  0  0  0  0  0  0  0
    0.2327   -1.7851   -1.0920 H   0  0  0  0  0  0  0  0  0  0  0  0
    0.5303   -3.4070   -0.4497 H   0  0  0  0  0  0  0  0  0  0  0  0
    4.4976    2.8127   -2.2978 H   0  0  0  0  0  0  0  0  0  0  0  0
  1  2  1  0
  2  3  1  0
  3  4  1  0
  4  5  1  0
  3  6  1  0
  6  7  1  0
  7  8  1  0
  8  9  1  0
  9 10  1  0
 10 11  1  0
 10 12  1  0
 12 13  1  0
 13 14  1  0
 14 15  1  0
 15 16  1  0
 16 17  1  0
 17 18  1  0
 18 19  1  0
 19 20  1  0
 20 21  2  0
 21 22  1  0
 22 23  2  0
 23 24  1  0
 24 25  1  0
 25 26  1  0
 26 27  1  0
 27 28  1  0
 28 29  2  0
 27 30  1  0
 25 31  1  0
 16 32  1  6
  3 33  1  0
 16 12  1  0
 20 15  1  0
 28 23  1  0
  1 34  1  0
  1 35  1  0
  1 36  1  0
  2 37  1  0
  2 38  1  0
  4 39  1  0
  4 40  1  0
  5 41  1  0
  5 42  1  0
  5 43  1  0
  6 44  1  0
  6 45  1  0
  7 46  1  0
  7 47  1  0
  8 48  1  0
  8 49  1  0
 10 50  1  1
 11 51  1  0
 11 52  1  0
 11 53  1  0
 12 54  1  1
 13 55  1  0
 13 56  1  0
 14 57  1  0
 14 58  1  0
 15 59  1  1
 17 60  1  0
 17 61  1  0
 18 62  1  0
 18 63  1  0
 19 64  1  0
 19 65  1  0
 21 66  1  0
 22 67  1  0
 24 68  1  0
 24 69  1  0
 25 70  1  6
 26 71  1  0
 26 72  1  0
 27 73  1  1
 29 74  1  0
 29 75  1  0
 30 76  1  0
 31 77  1  0
 32 78  1  0
 32 79  1  0
 32 80  1  0
 33 81  1  0
M  END
$$$$
