
     RDKit          3D

 79 81  0  0  0  0  0  0  0  0999 V2000
    8.7420   -0.5229    1.8806 C   0  0  0  0  0  0  0  0  0  0  0  0
    8.9589   -0.2087    0.4054 C   0  0  0  0  0  0  0  0  0  0  0  0
    7.8186   -0.6515   -0.5440 C   0  0  0  0  0  0  0  0  0  0  0  0
    7.6770   -2.1943   -0.5391 C   0  0  0  0  0  0  0  0  0  0  0  0
    6.8174   -2.7717   -1.6622 C   0  0  0  0  0  0  0  0  0  0  0  0
    6.5682    0.1515   -0.2475 C   0  0  0  0  0  0  0  0  0  0  0  0
    5.4071   -0.2897    0.2626 C   0  0  0  0  0  0  0  0  0  0  0  0
    4.2859    0.5868    0.5173 C   0  0  0  0  0  0  0  0  0  0  0  0
    3.1277    0.1515    1.0394 C   0  0  0  0  0  0  0  0  0  0  0  0
    1.8930    0.9877    1.3539 C   0  0  1  0  0  0  0  0  0  0  0  0
    2.2360    2.4632    1.5885 C   0  0  0  0  0  0  0  0  0  0  0  0
    0.8125    0.7746    0.2564 C   0  0  1  0  0  0  0  0  0  0  0  0
    0.4295   -0.7262    0.0907 C   0  0  0  0  0  0  0  0  0  0  0  0
   -1.0449   -0.7765   -0.3279 C   0  0  0  0  0  0  0  0  0  0  0  0
   -1.3927    0.6745   -0.6520 C   0  0  2  0  0  0  0  0  0  0  0  0
   -0.5716    1.4840    0.3935 C   0  0  2  0  0  0  0  0  0  0  0  0
   -0.5940    2.9638   -0.0506 C   0  0  0  0  0  0  0  0  0  0  0  0
   -2.0247    3.4968   -0.2262 C   0  0  0  0  0  0  0  0  0  0  0  0
   -2.8948    2.6159   -1.1316 C   0  0  0  0  0  0  0  0  0  0  0  0
   -2.8310    1.1478   -0.7472 C   0  0  0  0  0  0  0  0  0  0  0  0
   -3.8878    0.3435   -0.5182 C   0  0  0  0  0  0  0  0  0  0  0  0
   -5.2908    0.7021   -0.6004 C   0  0  0  0  0  0  0  0  0  0  0  0
   -6.3406   -0.0679   -0.2462 C   0  0  0  0  0  0  0  0  0  0  0  0
   -7.7627    0.4042   -0.4842 C   0  0  0  0  0  0  0  0  0  0  0  0
   -8.7025   -0.6976   -1.0141 C   0  0  2  0  0  0  0  0  0  0  0  0
   -7.9513   -1.9353   -1.5094 C   0  0  0  0  0  0  0  0  0  0  0  0
   -7.0173   -2.4900   -0.4283 C   0  0  1  0  0  0  0  0  0  0  0  0
   -6.2628   -1.4095    0.3269 C   0  0  0  0  0  0  0  0  0  0  0  0
   -5.6397   -1.6436    1.4952 C   0  0  0  0  0  0  0  0  0  0  0  0
   -7.7913   -3.2737    0.4823 O   0  0  0  0  0  0  0  0  0  0  0  0
   -9.5137   -0.1804   -2.0720 O   0  0  0  0  0  0  0  0  0  0  0  0
   -1.1358    1.3478    1.8289 C   0  0  0  0  0  0  0  0  0  0  0  0
    8.2374   -0.2551   -1.8586 O   0  0  0  0  0  0  0  0  0  0  0  0
    8.6815   -1.6005    2.0568 H   0  0  0  0  0  0  0  0  0  0  0  0
    9.5823   -0.1390    2.4676 H   0  0  0  0  0  0  0  0  0  0  0  0
    7.8307   -0.0551    2.2646 H   0  0  0  0  0  0  0  0  0  0  0  0
    9.1279    0.8718    0.2958 H   0  0  0  0  0  0  0  0  0  0  0  0
    9.9008   -0.6718    0.0800 H   0  0  0  0  0  0  0  0  0  0  0  0
    7.2860   -2.5443    0.4230 H   0  0  0  0  0  0  0  0  0  0  0  0
    8.6742   -2.6406   -0.6494 H   0  0  0  0  0  0  0  0  0  0  0  0
    6.7462   -3.8589   -1.5514 H   0  0  0  0  0  0  0  0  0  0  0  0
    7.2590   -2.5720   -2.6435 H   0  0  0  0  0  0  0  0  0  0  0  0
    5.8015   -2.3686   -1.6541 H   0  0  0  0  0  0  0  0  0  0  0  0
    6.6688    1.2159   -0.4636 H   0  0  0  0  0  0  0  0  0  0  0  0
    5.2769   -1.3381    0.5176 H   0  0  0  0  0  0  0  0  0  0  0  0
    4.4131    1.6358    0.2609 H   0  0  0  0  0  0  0  0  0  0  0  0
    3.0287   -0.9072    1.2790 H   0  0  0  0  0  0  0  0  0  0  0  0
    1.5097    0.6032    2.3089 H   0  0  0  0  0  0  0  0  0  0  0  0
    1.4209    2.9819    2.0987 H   0  0  0  0  0  0  0  0  0  0  0  0
    2.4402    2.9865    0.6481 H   0  0  0  0  0  0  0  0  0  0  0  0
    3.1137    2.5699    2.2367 H   0  0  0  0  0  0  0  0  0  0  0  0
    1.2544    1.0958   -0.7003 H   0  0  0  0  0  0  0  0  0  0  0  0
    0.5598   -1.2894    1.0222 H   0  0  0  0  0  0  0  0  0  0  0  0
    1.0629   -1.1975   -0.6699 H   0  0  0  0  0  0  0  0  0  0  0  0
   -1.6440   -1.1734    0.4990 H   0  0  0  0  0  0  0  0  0  0  0  0
   -1.1962   -1.4360   -1.1892 H   0  0  0  0  0  0  0  0  0  0  0  0
   -0.9626    0.8612   -1.6510 H   0  0  0  0  0  0  0  0  0  0  0  0
   -0.0611    3.0736   -1.0044 H   0  0  0  0  0  0  0  0  0  0  0  0
   -0.0774    3.6059    0.6678 H   0  0  0  0  0  0  0  0  0  0  0  0
   -2.5048    3.5936    0.7547 H   0  0  0  0  0  0  0  0  0  0  0  0
   -1.9803    4.5089   -0.6455 H   0  0  0  0  0  0  0  0  0  0  0  0
   -3.9119    3.0163   -1.1144 H   0  0  0  0  0  0  0  0  0  0  0  0
   -2.5452    2.7140   -2.1676 H   0  0  0  0  0  0  0  0  0  0  0  0
   -3.6965   -0.6946   -0.2574 H   0  0  0  0  0  0  0  0  0  0  0  0
   -5.5108    1.6818   -1.0166 H   0  0  0  0  0  0  0  0  0  0  0  0
   -7.7745    1.2627   -1.1688 H   0  0  0  0  0  0  0  0  0  0  0  0
   -8.1676    0.7788    0.4657 H   0  0  0  0  0  0  0  0  0  0  0  0
   -9.3912   -0.9905   -0.2121 H   0  0  0  0  0  0  0  0  0  0  0  0
   -7.3740   -1.6738   -2.4067 H   0  0  0  0  0  0  0  0  0  0  0  0
   -8.6760   -2.6962   -1.8256 H   0  0  0  0  0  0  0  0  0  0  0  0
   -6.3000   -3.1687   -0.9046 H   0  0  0  0  0  0  0  0  0  0  0  0
   -5.1400   -0.8530    2.0477 H   0  0  0  0  0  0  0  0  0  0  0  0
   -5.6107   -2.6407    1.9251 H   0  0  0  0  0  0  0  0  0  0  0  0
   -8.1553   -2.6719    1.1539 H   0  0  0  0  0  0  0  0  0  0  0  0
   -8.9340    0.0075   -2.8304 H   0  0  0  0  0  0  0  0  0  0  0  0
   -1.0475    0.3276    2.2155 H   0  0  0  0  0  0  0  0  0  0  0  0
   -0.6026    2.0015    2.5262 H   0  0  0  0  0  0  0  0  0  0  0  0
   -2.1945    1.6179    1.8879 H   0  0  0  0  0  0  0  0  0  0  0  0
    7.4586   -0.3064   -2.4385 H   0  0  0  0  0  0  0  0  0  0  0  0
  1  2  1  0
  2  3  1  0
  3  4  1  0
  4  5  1  0
  3  6  1  0
  6  7  2  0
  7  8  1  0
  8  9  2  0
  9 10  1  0
 10 11  1  0
 10 12  1  0
 12 13  1  0
 13 14  1  0
 14 15  1  0
 15 16  1  0
 16 17  1  0
 17 18  1  0
 18 19  1  0
 19 20  1  0
 20 21  2  0
 21 22  1  0
 22 23  2  0
 23 24  1  0
 24 25  1  0
 25 26  1  0
 26 27  1  0
 27 28  1  0
 28 29  2  0
 27 30  1  0
 25 31  1  0
 16 32  1  1
  3 33  1  0
 16 12  1  0
 20 15  1  0
 28 23  1  0
  1 34  1  0
  1 35  1  0
  1 36  1  0
  2 37  1  0
  2 38  1  0
  4 39  1  0
  4 40  1  0
  5 41  1  0
  5 42  1  0
  5 43  1  0
  6 44  1  0
  7 45  1  0
  8 46  1  0
  9 47  1  0
 10 48  1  1
 11 49  1  0
 11 50  1  0
 11 51  1  0
 12 52  1  6
 13 53  1  0
 13 54  1  0
 14 55  1  0
 14 56  1  0
 15 57  1  6
 17 58  1  0
 17 59  1  0
 18 60  1  0
 18 61  1  0
 19 62  1  0
 19 63  1  0
 21 64  1  0
 22 65  1  0
 24 66  1  0
 24 67  1  0
 25 68  1  1
 26 69  1  0
 26 70  1  0
 27 71  1  6
 29 72  1  0
 29 73  1  0
 30 74  1  0
 31 75  1  0
 32 76  1  0
 32 77  1  0
 32 78  1  0
 33 79  1  0
M  END
$$$$
