
     RDKit          3D

 62 65  0  0  0  0  0  0  0  0999 V2000
   11.6425   -0.5579   -1.2871 C   0  0  0  0  0  0  0  0  0  0  0  0
   10.2296   -0.8465   -0.9396 C   0  0  0  0  0  0  0  0  0  0  0  0
    9.0869   -0.8064   -1.7112 C   0  0  0  0  0  0  0  0  0  0  0  0
    7.9827   -1.1452   -0.8817 C   0  0  0  0  0  0  0  0  0  0  0  0
    8.4917   -1.4156    0.3892 C   0  0  0  0  0  0  0  0  0  0  0  0
    9.8553   -1.2359    0.3240 N   0  0  0  0  0  0  0  0  0  0  0  0
    7.6812   -1.7900    1.4704 C   0  0  0  0  0  0  0  0  0  0  0  0
    6.3024   -1.8474    1.2524 C   0  0  0  0  0  0  0  0  0  0  0  0
    5.7724   -1.5368    0.0011 C   0  0  0  0  0  0  0  0  0  0  0  0
    6.5939   -1.2301   -1.0906 C   0  0  0  0  0  0  0  0  0  0  0  0
    4.4072   -1.5241   -0.1600 O   0  0  0  0  0  0  0  0  0  0  0  0
    3.7621   -0.3088    0.0062 C   0  0  0  0  0  0  0  0  0  0  0  0
    2.4345   -0.3762   -0.2178 N   0  0  0  0  0  0  0  0  0  0  0  0
    1.7224    0.7521   -0.0788 C   0  0  0  0  0  0  0  0  0  0  0  0
    2.2694    1.9273    0.2642 N   0  0  0  0  0  0  0  0  0  0  0  0
    3.5906    1.9568    0.4863 C   0  0  0  0  0  0  0  0  0  0  0  0
    4.3970    0.8586    0.3722 C   0  0  0  0  0  0  0  0  0  0  0  0
    0.3557    0.6250   -0.3180 N   0  0  0  0  0  0  0  0  0  0  0  0
   -0.7227    1.5162   -0.2582 C   0  0  0  0  0  0  0  0  0  0  0  0
   -0.5964    2.8714    0.0655 C   0  0  0  0  0  0  0  0  0  0  0  0
   -1.7081    3.7188    0.0942 C   0  0  0  0  0  0  0  0  0  0  0  0
   -2.9737    3.2291   -0.2110 C   0  0  0  0  0  0  0  0  0  0  0  0
   -3.1389    1.8825   -0.5517 C   0  0  0  0  0  0  0  0  0  0  0  0
   -2.0107    1.0403   -0.5671 C   0  0  0  0  0  0  0  0  0  0  0  0
   -4.5005    1.3469   -0.9082 C   0  0  0  0  0  0  0  0  0  0  0  0
   -5.4013    0.9183    0.5901 S   0  0  0  0  0  6  0  0  0  0  0  0
   -5.6731    2.1233    1.3460 O   0  0  0  0  0  0  0  0  0  0  0  0
   -4.8170   -0.2615    1.1901 O   0  0  0  0  0  0  0  0  0  0  0  0
   -6.8972    0.4663   -0.0295 N   0  0  0  0  0  0  0  0  0  0  0  0
   -7.0127   -0.7605   -0.8296 C   0  0  0  0  0  0  0  0  0  0  0  0
   -8.4929   -1.1340   -1.0854 C   0  0  0  0  0  0  0  0  0  0  0  0
   -9.3380   -1.5812    0.0339 N   0  0  0  0  0  0  0  0  0  0  0  0
   -9.6365   -0.5275    0.9991 C   0  0  0  0  0  0  0  0  0  0  0  0
   -8.7980   -2.7578    0.7125 C   0  0  0  0  0  0  0  0  0  0  0  0
   12.2429   -0.3592   -0.3936 H   0  0  0  0  0  0  0  0  0  0  0  0
   11.7072    0.3216   -1.9363 H   0  0  0  0  0  0  0  0  0  0  0  0
   12.0817   -1.4091   -1.8147 H   0  0  0  0  0  0  0  0  0  0  0  0
    9.0428   -0.5403   -2.7605 H   0  0  0  0  0  0  0  0  0  0  0  0
   10.4829   -1.3526    1.1081 H   0  0  0  0  0  0  0  0  0  0  0  0
    8.1003   -2.0077    2.4471 H   0  0  0  0  0  0  0  0  0  0  0  0
    5.6389   -2.1103    2.0725 H   0  0  0  0  0  0  0  0  0  0  0  0
    6.1634   -1.0179   -2.0648 H   0  0  0  0  0  0  0  0  0  0  0  0
    3.9924    2.9243    0.7699 H   0  0  0  0  0  0  0  0  0  0  0  0
    5.4564    0.9393    0.5648 H   0  0  0  0  0  0  0  0  0  0  0  0
    0.1478   -0.3439   -0.5046 H   0  0  0  0  0  0  0  0  0  0  0  0
    0.3696    3.3013    0.3120 H   0  0  0  0  0  0  0  0  0  0  0  0
   -1.5782    4.7640    0.3619 H   0  0  0  0  0  0  0  0  0  0  0  0
   -3.8248    3.9057   -0.1694 H   0  0  0  0  0  0  0  0  0  0  0  0
   -2.1366   -0.0115   -0.8206 H   0  0  0  0  0  0  0  0  0  0  0  0
   -4.4165    0.4489   -1.5271 H   0  0  0  0  0  0  0  0  0  0  0  0
   -5.0796    2.1016   -1.4495 H   0  0  0  0  0  0  0  0  0  0  0  0
   -7.5173    1.2451   -0.2468 H   0  0  0  0  0  0  0  0  0  0  0  0
   -6.4875   -1.5901   -0.3495 H   0  0  0  0  0  0  0  0  0  0  0  0
   -6.5432   -0.5840   -1.8039 H   0  0  0  0  0  0  0  0  0  0  0  0
   -8.9884   -0.2850   -1.5749 H   0  0  0  0  0  0  0  0  0  0  0  0
   -8.4986   -1.9356   -1.8370 H   0  0  0  0  0  0  0  0  0  0  0  0
   -8.7702   -0.2420    1.6034 H   0  0  0  0  0  0  0  0  0  0  0  0
  -10.4227   -0.8609    1.6853 H   0  0  0  0  0  0  0  0  0  0  0  0
  -10.0236    0.3656    0.4964 H   0  0  0  0  0  0  0  0  0  0  0  0
   -8.5889   -3.5574   -0.0062 H   0  0  0  0  0  0  0  0  0  0  0  0
   -9.5315   -3.1598    1.4203 H   0  0  0  0  0  0  0  0  0  0  0  0
   -7.8787   -2.5397    1.2665 H   0  0  0  0  0  0  0  0  0  0  0  0
  1  2  1  0
  2  3  2  0
  3  4  1  0
  4  5  2  0
  5  6  1  0
  5  7  1  0
  7  8  2  0
  8  9  1  0
  9 10  2  0
  9 11  1  0
 11 12  1  0
 12 13  2  0
 13 14  1  0
 14 15  2  0
 15 16  1  0
 16 17  2  0
 14 18  1  0
 18 19  1  0
 19 20  2  0
 20 21  1  0
 21 22  2  0
 22 23  1  0
 23 24  2  0
 23 25  1  0
 25 26  1  0
 26 27  2  0
 26 28  2  0
 26 29  1  0
 29 30  1  0
 30 31  1  0
 31 32  1  0
 32 33  1  0
 32 34  1  0
  6  2  1  0
 10  4  1  0
 17 12  1  0
 24 19  1  0
  1 35  1  0
  1 36  1  0
  1 37  1  0
  3 38  1  0
  6 39  1  0
  7 40  1  0
  8 41  1  0
 10 42  1  0
 16 43  1  0
 17 44  1  0
 18 45  1  0
 20 46  1  0
 21 47  1  0
 22 48  1  0
 24 49  1  0
 25 50  1  0
 25 51  1  0
 29 52  1  0
 30 53  1  0
 30 54  1  0
 31 55  1  0
 31 56  1  0
 33 57  1  0
 33 58  1  0
 33 59  1  0
 34 60  1  0
 34 61  1  0
 34 62  1  0
M  END
$$$$
