
     RDKit          3D

 65 65  0  0  0  0  0  0  0  0999 V2000
   -8.6417    1.6979    2.5895 C   0  0  0  0  0  0  0  0  0  0  0  0
   -7.2305    1.5167    3.1277 C   0  0  0  0  0  0  0  0  0  0  0  0
   -6.4266    0.4341    2.4017 C   0  0  0  0  0  0  0  0  0  0  0  0
   -6.1639    0.7607    0.9277 C   0  0  0  0  0  0  0  0  0  0  0  0
   -5.3162   -0.2955    0.2021 C   0  0  0  0  0  0  0  0  0  0  0  0
   -3.8068   -0.1479    0.4303 C   0  0  0  0  0  0  0  0  0  0  0  0
   -3.4740   -0.4766    1.7698 O   0  0  0  0  0  0  0  0  0  0  0  0
   -3.0377   -1.0939   -0.4483 C   0  0  0  0  0  0  0  0  0  0  0  0
   -2.1441   -0.7200   -1.3794 C   0  0  0  0  0  0  0  0  0  0  0  0
   -1.3734   -1.7116   -2.2354 C   0  0  0  0  0  0  0  0  0  0  0  0
   -1.6878   -1.5977   -3.7441 C   0  0  0  0  0  0  0  0  0  0  0  0
   -3.0689   -1.4742   -4.0434 O   0  0  0  0  0  0  0  0  0  0  0  0
   -0.8825   -0.3996   -4.2316 C   0  0  0  0  0  0  0  0  0  0  0  0
    0.3091   -0.4459   -3.3100 C   0  0  0  0  0  0  0  0  0  0  0  0
    1.2832    0.2836   -3.4461 O   0  0  0  0  0  0  0  0  0  0  0  0
    0.1586   -1.4958   -2.2155 C   0  0  0  0  0  0  0  0  0  0  0  0
    0.7476   -1.0774   -0.8669 C   0  0  0  0  0  0  0  0  0  0  0  0
    2.2592   -1.3234   -0.8039 C   0  0  0  0  0  0  0  0  0  0  0  0
    2.8411   -0.8142    0.4850 C   0  0  0  0  0  0  0  0  0  0  0  0
    3.7234    0.1895    0.6241 C   0  0  0  0  0  0  0  0  0  0  0  0
    4.2767    1.0461   -0.4766 C   0  0  0  0  0  0  0  0  0  0  0  0
    5.6027    0.5335   -1.0534 C   0  0  0  0  0  0  0  0  0  0  0  0
    6.8293    0.8497   -0.1955 C   0  0  0  0  0  0  0  0  0  0  0  0
    7.0976   -0.1210    0.9401 C   0  0  0  0  0  0  0  0  0  0  0  0
    6.4598   -1.1447    1.1541 O   0  0  0  0  0  0  0  0  0  0  0  0
    8.1647    0.2624    1.7146 N   0  0  0  0  0  0  0  0  0  0  0  0
    8.5500   -0.4724    2.8673 C   0  0  0  0  0  0  0  0  0  0  0  0
    9.7872    0.0745    3.2575 O   0  0  0  0  0  0  0  0  0  0  0  0
   -8.6346    2.0945    1.5699 H   0  0  0  0  0  0  0  0  0  0  0  0
   -9.1917    2.4084    3.2136 H   0  0  0  0  0  0  0  0  0  0  0  0
   -9.1889    0.7496    2.5896 H   0  0  0  0  0  0  0  0  0  0  0  0
   -7.2954    1.2457    4.1891 H   0  0  0  0  0  0  0  0  0  0  0  0
   -6.6956    2.4736    3.0793 H   0  0  0  0  0  0  0  0  0  0  0  0
   -6.9524   -0.5255    2.4789 H   0  0  0  0  0  0  0  0  0  0  0  0
   -5.4782    0.3177    2.9347 H   0  0  0  0  0  0  0  0  0  0  0  0
   -7.1258    0.8217    0.4044 H   0  0  0  0  0  0  0  0  0  0  0  0
   -5.6928    1.7482    0.8390 H   0  0  0  0  0  0  0  0  0  0  0  0
   -5.5185   -0.1981   -0.8729 H   0  0  0  0  0  0  0  0  0  0  0  0
   -5.6527   -1.2945    0.5053 H   0  0  0  0  0  0  0  0  0  0  0  0
   -3.5035    0.8892    0.2486 H   0  0  0  0  0  0  0  0  0  0  0  0
   -2.5049   -0.4197    1.8420 H   0  0  0  0  0  0  0  0  0  0  0  0
   -3.2435   -2.1526   -0.2901 H   0  0  0  0  0  0  0  0  0  0  0  0
   -1.9443    0.3414   -1.5278 H   0  0  0  0  0  0  0  0  0  0  0  0
   -1.6059   -2.7292   -1.8950 H   0  0  0  0  0  0  0  0  0  0  0  0
   -1.3295   -2.5031   -4.2516 H   0  0  0  0  0  0  0  0  0  0  0  0
   -3.4659   -0.8088   -3.4546 H   0  0  0  0  0  0  0  0  0  0  0  0
   -1.4218    0.5429   -4.1062 H   0  0  0  0  0  0  0  0  0  0  0  0
   -0.5775   -0.5204   -5.2734 H   0  0  0  0  0  0  0  0  0  0  0  0
    0.6445   -2.4099   -2.5800 H   0  0  0  0  0  0  0  0  0  0  0  0
    0.2700   -1.6533   -0.0643 H   0  0  0  0  0  0  0  0  0  0  0  0
    0.5442   -0.0165   -0.6747 H   0  0  0  0  0  0  0  0  0  0  0  0
    2.4552   -2.4008   -0.8648 H   0  0  0  0  0  0  0  0  0  0  0  0
    2.7584   -0.8805   -1.6692 H   0  0  0  0  0  0  0  0  0  0  0  0
    2.5462   -1.3553    1.3816 H   0  0  0  0  0  0  0  0  0  0  0  0
    4.0929    0.4055    1.6246 H   0  0  0  0  0  0  0  0  0  0  0  0
    3.5474    1.1240   -1.2917 H   0  0  0  0  0  0  0  0  0  0  0  0
    4.3953    2.0703   -0.1013 H   0  0  0  0  0  0  0  0  0  0  0  0
    5.7448    1.0359   -2.0197 H   0  0  0  0  0  0  0  0  0  0  0  0
    5.5415   -0.5404   -1.2707 H   0  0  0  0  0  0  0  0  0  0  0  0
    7.7149    0.8163   -0.8433 H   0  0  0  0  0  0  0  0  0  0  0  0
    6.7604    1.8651    0.2127 H   0  0  0  0  0  0  0  0  0  0  0  0
    8.6985    1.0943    1.5081 H   0  0  0  0  0  0  0  0  0  0  0  0
    7.8057   -0.3167    3.6545 H   0  0  0  0  0  0  0  0  0  0  0  0
    8.6447   -1.5410    2.6397 H   0  0  0  0  0  0  0  0  0  0  0  0
   10.0227   -0.3585    4.0944 H   0  0  0  0  0  0  0  0  0  0  0  0
  1  2  1  0
  2  3  1  0
  3  4  1  0
  4  5  1  0
  5  6  1  0
  6  7  1  0
  6  8  1  0
  8  9  2  0
  9 10  1  0
 10 11  1  0
 11 12  1  0
 11 13  1  0
 13 14  1  0
 14 15  2  0
 14 16  1  0
 16 17  1  0
 17 18  1  0
 18 19  1  0
 19 20  2  0
 20 21  1  0
 21 22  1  0
 22 23  1  0
 23 24  1  0
 24 25  2  0
 24 26  1  0
 26 27  1  0
 27 28  1  0
 16 10  1  0
  1 29  1  0
  1 30  1  0
  1 31  1  0
  2 32  1  0
  2 33  1  0
  3 34  1  0
  3 35  1  0
  4 36  1  0
  4 37  1  0
  5 38  1  0
  5 39  1  0
  6 40  1  0
  7 41  1  0
  8 42  1  0
  9 43  1  0
 10 44  1  0
 11 45  1  0
 12 46  1  0
 13 47  1  0
 13 48  1  0
 16 49  1  0
 17 50  1  0
 17 51  1  0
 18 52  1  0
 18 53  1  0
 19 54  1  0
 20 55  1  0
 21 56  1  0
 21 57  1  0
 22 58  1  0
 22 59  1  0
 23 60  1  0
 23 61  1  0
 26 62  1  0
 27 63  1  0
 27 64  1  0
 28 65  1  0
M  END
$$$$
