
     RDKit          3D

 39 39  0  0  0  0  0  0  0  0999 V2000
    7.0787    0.8541   -0.6562 C   0  0  0  0  0  0  0  0  0  0  0  0
    6.0562    1.3306   -1.4831 C   0  0  0  0  0  0  0  0  0  0  0  0
    4.7163    1.1214   -1.1429 C   0  0  0  0  0  0  0  0  0  0  0  0
    4.4041    0.3878   -0.0056 C   0  0  0  0  0  0  0  0  0  0  0  0
    5.4110   -0.1134    0.8261 C   0  0  0  0  0  0  0  0  0  0  0  0
    6.7490    0.1402    0.5112 C   0  0  0  0  0  0  0  0  0  0  0  0
    3.0674    0.2752    0.3933 N   0  0  0  0  0  0  0  0  0  0  0  0
    2.2999   -0.8353    0.1195 C   0  0  0  0  0  0  0  0  0  0  0  0
    2.7197   -1.8906   -0.3540 O   0  0  0  0  0  0  0  0  0  0  0  0
    0.8350   -0.6038    0.4779 C   0  0  0  0  0  0  0  0  0  0  0  0
   -0.0708   -1.7842    0.1474 C   0  0  0  0  0  0  0  0  0  0  0  0
   -1.5109   -1.5992    0.6379 C   0  0  0  0  0  0  0  0  0  0  0  0
   -2.2984   -0.5149   -0.1070 C   0  0  0  0  0  0  0  0  0  0  0  0
   -3.7727   -0.5045    0.3218 C   0  0  0  0  0  0  0  0  0  0  0  0
   -4.5669    0.5961   -0.3830 C   0  0  0  0  0  0  0  0  0  0  0  0
   -6.0053    0.6785    0.0871 C   0  0  0  0  0  0  0  0  0  0  0  0
   -6.4480    0.1243    1.0981 O   0  0  0  0  0  0  0  0  0  0  0  0
   -6.7975    1.4751   -0.7170 N   0  0  0  0  0  0  0  0  0  0  0  0
   -8.1344    1.6887   -0.3090 O   0  0  0  0  0  0  0  0  0  0  0  0
    8.1230    1.0322   -0.9023 H   0  0  0  0  0  0  0  0  0  0  0  0
    6.3195    1.8687   -2.3969 H   0  0  0  0  0  0  0  0  0  0  0  0
    3.9440    1.4970   -1.7951 H   0  0  0  0  0  0  0  0  0  0  0  0
    5.1630   -0.6670    1.7269 H   0  0  0  0  0  0  0  0  0  0  0  0
    7.5392   -0.2165    1.1665 H   0  0  0  0  0  0  0  0  0  0  0  0
    2.5482    1.1738    0.4119 H   0  0  0  0  0  0  0  0  0  0  0  0
    0.7938   -0.3928    1.5625 H   0  0  0  0  0  0  0  0  0  0  0  0
    0.5047    0.2886   -0.0707 H   0  0  0  0  0  0  0  0  0  0  0  0
   -0.0599   -1.9658   -0.9288 H   0  0  0  0  0  0  0  0  0  0  0  0
    0.3367   -2.6939    0.6184 H   0  0  0  0  0  0  0  0  0  0  0  0
   -1.5137   -1.3823    1.7141 H   0  0  0  0  0  0  0  0  0  0  0  0
   -2.0294   -2.5581    0.5157 H   0  0  0  0  0  0  0  0  0  0  0  0
   -2.2289   -0.6749   -1.1868 H   0  0  0  0  0  0  0  0  0  0  0  0
   -1.8548    0.4558    0.1104 H   0  0  0  0  0  0  0  0  0  0  0  0
   -3.8329   -0.3912    1.4110 H   0  0  0  0  0  0  0  0  0  0  0  0
   -4.2243   -1.4715    0.0877 H   0  0  0  0  0  0  0  0  0  0  0  0
   -4.5712    0.4154   -1.4682 H   0  0  0  0  0  0  0  0  0  0  0  0
   -4.1003    1.5760   -0.1862 H   0  0  0  0  0  0  0  0  0  0  0  0
   -6.4696    1.9953   -1.5156 H   0  0  0  0  0  0  0  0  0  0  0  0
   -8.1193    1.2851    0.5954 H   0  0  0  0  0  0  0  0  0  0  0  0
  1  2  2  0
  2  3  1  0
  3  4  2  0
  4  5  1  0
  5  6  2  0
  4  7  1  0
  7  8  1  0
  8  9  2  0
  8 10  1  0
 10 11  1  0
 11 12  1  0
 12 13  1  0
 13 14  1  0
 14 15  1  0
 15 16  1  0
 16 17  2  0
 16 18  1  0
 18 19  1  0
  6  1  1  0
  1 20  1  0
  2 21  1  0
  3 22  1  0
  5 23  1  0
  6 24  1  0
  7 25  1  0
 10 26  1  0
 10 27  1  0
 11 28  1  0
 11 29  1  0
 12 30  1  0
 12 31  1  0
 13 32  1  0
 13 33  1  0
 14 34  1  0
 14 35  1  0
 15 36  1  0
 15 37  1  0
 18 38  1  0
 19 39  1  0
M  END
$$$$
