
     RDKit          3D

 69 69  0  0  0  0  0  0  0  0999 V2000
    9.6693   -2.1920   -1.5324 C   0  0  0  0  0  0  0  0  0  0  0  0
    8.5775   -3.2347   -1.3633 C   0  0  0  0  0  0  0  0  0  0  0  0
    7.2110   -2.6418   -0.9874 C   0  0  0  0  0  0  0  0  0  0  0  0
    7.1873   -1.9926    0.3969 C   0  0  0  0  0  0  0  0  0  0  0  0
    5.7801   -1.6165    0.9024 C   0  0  0  0  0  0  0  0  0  0  0  0
    5.1339   -0.4540    0.1374 C   0  0  0  0  0  0  0  0  0  0  0  0
    4.7019   -0.9031   -1.1387 O   0  0  0  0  0  0  0  0  0  0  0  0
    3.9313    0.1309    0.8349 C   0  0  0  0  0  0  0  0  0  0  0  0
    3.2266    1.1593    0.3155 C   0  0  0  0  0  0  0  0  0  0  0  0
    2.0037    1.7896    0.9428 C   0  0  0  0  0  0  0  0  0  0  0  0
    2.2571    3.2737    1.2965 C   0  0  0  0  0  0  0  0  0  0  0  0
    2.2683    3.4140    2.7192 O   0  0  0  0  0  0  0  0  0  0  0  0
    1.1185    4.1102    0.7347 C   0  0  0  0  0  0  0  0  0  0  0  0
    0.1581    3.0858    0.2203 C   0  0  0  0  0  0  0  0  0  0  0  0
   -1.0075    3.3528   -0.0524 O   0  0  0  0  0  0  0  0  0  0  0  0
    0.8100    1.7482   -0.0300 C   0  0  0  0  0  0  0  0  0  0  0  0
   -0.1313    0.5719    0.2463 C   0  0  0  0  0  0  0  0  0  0  0  0
   -1.0467    0.2675   -0.9465 C   0  0  0  0  0  0  0  0  0  0  0  0
   -2.1164   -0.7219   -0.5778 C   0  0  0  0  0  0  0  0  0  0  0  0
   -3.4159   -0.4674   -0.3383 C   0  0  0  0  0  0  0  0  0  0  0  0
   -4.1024    0.8763   -0.3573 C   0  0  0  0  0  0  0  0  0  0  0  0
   -4.7576    1.2517    0.9810 C   0  0  0  0  0  0  0  0  0  0  0  0
   -5.9648    0.4032    1.3703 C   0  0  0  0  0  0  0  0  0  0  0  0
   -7.1398    0.5703    0.4343 C   0  0  0  0  0  0  0  0  0  0  0  0
   -7.4015    1.5888   -0.1938 O   0  0  0  0  0  0  0  0  0  0  0  0
   -7.8776   -0.5783    0.4287 O   0  0  0  0  0  0  0  0  0  0  0  0
   -9.0967   -0.5747   -0.3344 C   0  0  0  0  0  0  0  0  0  0  0  0
   -9.2768   -1.9841   -0.8914 C   0  0  0  0  0  0  0  0  0  0  0  0
  -10.2455   -0.2022    0.5971 C   0  0  0  0  0  0  0  0  0  0  0  0
   10.5967   -2.6706   -1.8628 H   0  0  0  0  0  0  0  0  0  0  0  0
    9.3902   -1.4491   -2.2858 H   0  0  0  0  0  0  0  0  0  0  0  0
    9.8813   -1.6743   -0.5940 H   0  0  0  0  0  0  0  0  0  0  0  0
    8.8830   -3.9691   -0.6088 H   0  0  0  0  0  0  0  0  0  0  0  0
    8.4681   -3.7819   -2.3081 H   0  0  0  0  0  0  0  0  0  0  0  0
    6.9250   -1.9138   -1.7522 H   0  0  0  0  0  0  0  0  0  0  0  0
    6.4697   -3.4503   -1.0161 H   0  0  0  0  0  0  0  0  0  0  0  0
    7.6275   -2.6926    1.1211 H   0  0  0  0  0  0  0  0  0  0  0  0
    7.8204   -1.0965    0.4025 H   0  0  0  0  0  0  0  0  0  0  0  0
    5.1385   -2.5062    0.8574 H   0  0  0  0  0  0  0  0  0  0  0  0
    5.8780   -1.3390    1.9603 H   0  0  0  0  0  0  0  0  0  0  0  0
    5.8786    0.3361   -0.0173 H   0  0  0  0  0  0  0  0  0  0  0  0
    3.9671   -1.5281   -0.9962 H   0  0  0  0  0  0  0  0  0  0  0  0
    3.6414   -0.2863    1.7934 H   0  0  0  0  0  0  0  0  0  0  0  0
    3.5494    1.5668   -0.6435 H   0  0  0  0  0  0  0  0  0  0  0  0
    1.7516    1.2412    1.8618 H   0  0  0  0  0  0  0  0  0  0  0  0
    3.2183    3.6567    0.9315 H   0  0  0  0  0  0  0  0  0  0  0  0
    3.1252    3.0700    3.0454 H   0  0  0  0  0  0  0  0  0  0  0  0
    0.6365    4.7457    1.4829 H   0  0  0  0  0  0  0  0  0  0  0  0
    1.4600    4.7116   -0.1128 H   0  0  0  0  0  0  0  0  0  0  0  0
    1.1512    1.7395   -1.0739 H   0  0  0  0  0  0  0  0  0  0  0  0
    0.4514   -0.3287    0.4703 H   0  0  0  0  0  0  0  0  0  0  0  0
   -0.7412    0.7822    1.1350 H   0  0  0  0  0  0  0  0  0  0  0  0
   -0.4460   -0.1603   -1.7625 H   0  0  0  0  0  0  0  0  0  0  0  0
   -1.4802    1.1841   -1.3597 H   0  0  0  0  0  0  0  0  0  0  0  0
   -1.7895   -1.7560   -0.5203 H   0  0  0  0  0  0  0  0  0  0  0  0
   -4.0524   -1.3200   -0.1032 H   0  0  0  0  0  0  0  0  0  0  0  0
   -3.3910    1.6722   -0.6003 H   0  0  0  0  0  0  0  0  0  0  0  0
   -4.8461    0.8789   -1.1645 H   0  0  0  0  0  0  0  0  0  0  0  0
   -4.0075    1.1791    1.7792 H   0  0  0  0  0  0  0  0  0  0  0  0
   -5.0577    2.3069    0.9375 H   0  0  0  0  0  0  0  0  0  0  0  0
   -6.3111    0.6952    2.3662 H   0  0  0  0  0  0  0  0  0  0  0  0
   -5.6844   -0.6542    1.4151 H   0  0  0  0  0  0  0  0  0  0  0  0
   -9.0435    0.1340   -1.1708 H   0  0  0  0  0  0  0  0  0  0  0  0
   -9.0283   -2.7452   -0.1383 H   0  0  0  0  0  0  0  0  0  0  0  0
   -8.5905   -2.1413   -1.7347 H   0  0  0  0  0  0  0  0  0  0  0  0
  -10.3012   -2.1493   -1.2470 H   0  0  0  0  0  0  0  0  0  0  0  0
  -10.2992   -0.9007    1.4422 H   0  0  0  0  0  0  0  0  0  0  0  0
  -10.0907    0.7976    1.0196 H   0  0  0  0  0  0  0  0  0  0  0  0
  -11.2029   -0.2149    0.0639 H   0  0  0  0  0  0  0  0  0  0  0  0
  1  2  1  0
  2  3  1  0
  3  4  1  0
  4  5  1  0
  5  6  1  0
  6  7  1  0
  6  8  1  0
  8  9  2  0
  9 10  1  0
 10 11  1  0
 11 12  1  0
 11 13  1  0
 13 14  1  0
 14 15  2  0
 14 16  1  0
 16 17  1  0
 17 18  1  0
 18 19  1  0
 19 20  2  0
 20 21  1  0
 21 22  1  0
 22 23  1  0
 23 24  1  0
 24 25  2  0
 24 26  1  0
 26 27  1  0
 27 28  1  0
 27 29  1  0
 16 10  1  0
  1 30  1  0
  1 31  1  0
  1 32  1  0
  2 33  1  0
  2 34  1  0
  3 35  1  0
  3 36  1  0
  4 37  1  0
  4 38  1  0
  5 39  1  0
  5 40  1  0
  6 41  1  0
  7 42  1  0
  8 43  1  0
  9 44  1  0
 10 45  1  0
 11 46  1  0
 12 47  1  0
 13 48  1  0
 13 49  1  0
 16 50  1  0
 17 51  1  0
 17 52  1  0
 18 53  1  0
 18 54  1  0
 19 55  1  0
 20 56  1  0
 21 57  1  0
 21 58  1  0
 22 59  1  0
 22 60  1  0
 23 61  1  0
 23 62  1  0
 27 63  1  0
 28 64  1  0
 28 65  1  0
 28 66  1  0
 29 67  1  0
 29 68  1  0
 29 69  1  0
M  END
$$$$
