
     RDKit          3D

 48 47  0  0  0  0  0  0  0  0999 V2000
    6.2871    0.3341    0.8193 C   0  0  0  0  0  0  0  0  0  0  0  0
    5.7961    1.7707    0.8175 C   0  0  0  0  0  0  0  0  0  0  0  0
    4.3191    1.9530    0.4557 C   0  0  0  0  0  0  0  0  0  0  0  0
    3.9409    1.6527   -0.9998 C   0  0  0  0  0  0  0  0  0  0  0  0
    3.7596    0.1808   -1.3837 C   0  0  0  0  0  0  0  0  0  0  0  0
    2.8158   -0.6385   -0.4975 C   0  0  0  0  0  0  0  0  0  0  0  0
    1.3800   -0.1111   -0.5050 C   0  0  0  0  0  0  0  0  0  0  0  0
    0.4626   -0.9774    0.3676 C   0  0  0  0  0  0  0  0  0  0  0  0
   -0.9929   -0.4962    0.3714 C   0  0  0  0  0  0  0  0  0  0  0  0
   -1.6734   -0.7016   -0.9558 C   0  0  0  0  0  0  0  0  0  0  0  0
   -2.7067   -1.5123   -1.2364 C   0  0  0  0  0  0  0  0  0  0  0  0
   -3.4335   -2.4331   -0.3000 C   0  0  0  0  0  0  0  0  0  0  0  0
   -4.9270   -2.1124   -0.1566 C   0  0  0  0  0  0  0  0  0  0  0  0
   -5.2402   -0.8219    0.6093 C   0  0  0  0  0  0  0  0  0  0  0  0
   -5.1538    0.4404   -0.2410 C   0  0  0  0  0  0  0  0  0  0  0  0
   -5.7012    1.6167    0.5156 C   0  0  0  0  0  0  0  0  0  0  0  0
   -5.2179    2.1265    1.5122 O   0  0  0  0  0  0  0  0  0  0  0  0
   -6.8462    2.0913   -0.0111 O   0  0  0  0  0  0  0  0  0  0  0  0
    5.5765   -0.3337    1.3190 H   0  0  0  0  0  0  0  0  0  0  0  0
    6.4589   -0.0274   -0.1985 H   0  0  0  0  0  0  0  0  0  0  0  0
    7.2447    0.2666    1.3493 H   0  0  0  0  0  0  0  0  0  0  0  0
    5.9412    2.1768    1.8266 H   0  0  0  0  0  0  0  0  0  0  0  0
    6.4236    2.3716    0.1482 H   0  0  0  0  0  0  0  0  0  0  0  0
    3.6879    1.3934    1.1532 H   0  0  0  0  0  0  0  0  0  0  0  0
    4.0827    3.0112    0.6338 H   0  0  0  0  0  0  0  0  0  0  0  0
    2.9998    2.1765   -1.2137 H   0  0  0  0  0  0  0  0  0  0  0  0
    4.6851    2.1032   -1.6682 H   0  0  0  0  0  0  0  0  0  0  0  0
    3.3866    0.1455   -2.4168 H   0  0  0  0  0  0  0  0  0  0  0  0
    4.7311   -0.3187   -1.4135 H   0  0  0  0  0  0  0  0  0  0  0  0
    3.1974   -0.6832    0.5277 H   0  0  0  0  0  0  0  0  0  0  0  0
    2.8146   -1.6712   -0.8677 H   0  0  0  0  0  0  0  0  0  0  0  0
    1.0166   -0.0939   -1.5379 H   0  0  0  0  0  0  0  0  0  0  0  0
    1.3518    0.9189   -0.1317 H   0  0  0  0  0  0  0  0  0  0  0  0
    0.8355   -0.9550    1.3997 H   0  0  0  0  0  0  0  0  0  0  0  0
    0.5066   -2.0219    0.0364 H   0  0  0  0  0  0  0  0  0  0  0  0
   -1.0329    0.5703    0.6229 H   0  0  0  0  0  0  0  0  0  0  0  0
   -1.5260   -1.0130    1.1742 H   0  0  0  0  0  0  0  0  0  0  0  0
   -1.2836   -0.0985   -1.7747 H   0  0  0  0  0  0  0  0  0  0  0  0
   -3.0661   -1.5264   -2.2658 H   0  0  0  0  0  0  0  0  0  0  0  0
   -3.3412   -3.4483   -0.7077 H   0  0  0  0  0  0  0  0  0  0  0  0
   -2.9740   -2.4666    0.6919 H   0  0  0  0  0  0  0  0  0  0  0  0
   -5.4149   -2.0993   -1.1397 H   0  0  0  0  0  0  0  0  0  0  0  0
   -5.3825   -2.9437    0.3981 H   0  0  0  0  0  0  0  0  0  0  0  0
   -4.5903   -0.7327    1.4888 H   0  0  0  0  0  0  0  0  0  0  0  0
   -6.2637   -0.9034    0.9999 H   0  0  0  0  0  0  0  0  0  0  0  0
   -4.1272    0.6899   -0.5193 H   0  0  0  0  0  0  0  0  0  0  0  0
   -5.7187    0.3170   -1.1726 H   0  0  0  0  0  0  0  0  0  0  0  0
   -7.0878    2.8343    0.5807 H   0  0  0  0  0  0  0  0  0  0  0  0
  1  2  1  0
  2  3  1  0
  3  4  1  0
  4  5  1  0
  5  6  1  0
  6  7  1  0
  7  8  1  0
  8  9  1  0
  9 10  1  0
 10 11  2  0
 11 12  1  0
 12 13  1  0
 13 14  1  0
 14 15  1  0
 15 16  1  0
 16 17  2  0
 16 18  1  0
  1 19  1  0
  1 20  1  0
  1 21  1  0
  2 22  1  0
  2 23  1  0
  3 24  1  0
  3 25  1  0
  4 26  1  0
  4 27  1  0
  5 28  1  0
  5 29  1  0
  6 30  1  0
  6 31  1  0
  7 32  1  0
  7 33  1  0
  8 34  1  0
  8 35  1  0
  9 36  1  0
  9 37  1  0
 10 38  1  0
 11 39  1  0
 12 40  1  0
 12 41  1  0
 13 42  1  0
 13 43  1  0
 14 44  1  0
 14 45  1  0
 15 46  1  0
 15 47  1  0
 18 48  1  0
M  END
$$$$
