
     RDKit          3D

 55 56  0  0  0  0  0  0  0  0999 V2000
   -4.6230   -1.7356    2.1087 C   0  0  0  0  0  0  0  0  0  0  0  0
   -5.7929   -1.6527    1.3120 O   0  0  0  0  0  0  0  0  0  0  0  0
   -5.6837   -1.0267    0.0913 C   0  0  0  0  0  0  0  0  0  0  0  0
   -4.4798   -0.6255   -0.4995 C   0  0  0  0  0  0  0  0  0  0  0  0
   -4.4708    0.0320   -1.7459 C   0  0  0  0  0  0  0  0  0  0  0  0
   -5.6917    0.2568   -2.4135 C   0  0  0  0  0  0  0  0  0  0  0  0
   -6.8953   -0.1453   -1.8358 C   0  0  0  0  0  0  0  0  0  0  0  0
   -6.8794   -0.7828   -0.5844 C   0  0  0  0  0  0  0  0  0  0  0  0
   -8.0723   -1.1929   -0.0328 O   0  0  0  0  0  0  0  0  0  0  0  0
   -8.1553    0.0317   -2.3649 O   0  0  0  0  0  0  0  0  0  0  0  0
   -8.2343    0.4066   -3.7337 C   0  0  0  0  0  0  0  0  0  0  0  0
   -3.2102    0.4309   -2.4066 C   0  0  0  0  0  0  0  0  0  0  0  0
   -2.0206    0.6039   -1.7900 C   0  0  0  0  0  0  0  0  0  0  0  0
   -0.8180    0.9379   -2.5926 C   0  0  0  0  0  0  0  0  0  0  0  0
   -0.9057    1.2938   -3.7681 O   0  0  0  0  0  0  0  0  0  0  0  0
    0.5326    0.8585   -1.9714 C   0  0  0  0  0  0  0  0  0  0  0  0
    0.9375    0.2598   -0.8412 C   0  0  0  0  0  0  0  0  0  0  0  0
    0.0858   -0.4339   -0.0233 O   0  0  0  0  0  0  0  0  0  0  0  0
    2.3470    0.2359   -0.4507 C   0  0  0  0  0  0  0  0  0  0  0  0
    2.8120    0.0226    0.7970 C   0  0  0  0  0  0  0  0  0  0  0  0
    4.2367    0.0131    1.2267 C   0  0  0  0  0  0  0  0  0  0  0  0
    5.3034    0.4198    0.4041 C   0  0  0  0  0  0  0  0  0  0  0  0
    6.6179    0.4085    0.8859 C   0  0  0  0  0  0  0  0  0  0  0  0
    6.8630   -0.0088    2.1949 C   0  0  0  0  0  0  0  0  0  0  0  0
    8.1496    0.0090    2.6745 O   0  0  0  0  0  0  0  0  0  0  0  0
    5.8220   -0.4292    3.0366 C   0  0  0  0  0  0  0  0  0  0  0  0
    4.5204   -0.4157    2.5481 C   0  0  0  0  0  0  0  0  0  0  0  0
    6.2057   -0.8345    4.2959 O   0  0  0  0  0  0  0  0  0  0  0  0
    5.2104   -1.3974    5.1346 C   0  0  0  0  0  0  0  0  0  0  0  0
    7.7458    0.7633    0.1782 O   0  0  0  0  0  0  0  0  0  0  0  0
    7.5510    1.4997   -1.0230 C   0  0  0  0  0  0  0  0  0  0  0  0
   -4.9028   -2.1774    3.0673 H   0  0  0  0  0  0  0  0  0  0  0  0
   -4.2020   -0.7454    2.3084 H   0  0  0  0  0  0  0  0  0  0  0  0
   -3.8784   -2.3930    1.6478 H   0  0  0  0  0  0  0  0  0  0  0  0
   -3.5388   -0.8277   -0.0020 H   0  0  0  0  0  0  0  0  0  0  0  0
   -5.6736    0.7659   -3.3784 H   0  0  0  0  0  0  0  0  0  0  0  0
   -8.7605   -0.7358   -0.5627 H   0  0  0  0  0  0  0  0  0  0  0  0
   -7.7062   -0.3068   -4.3748 H   0  0  0  0  0  0  0  0  0  0  0  0
   -7.8742    1.4285   -3.8837 H   0  0  0  0  0  0  0  0  0  0  0  0
   -9.2918    0.3806   -4.0059 H   0  0  0  0  0  0  0  0  0  0  0  0
   -3.2687    0.5599   -3.4925 H   0  0  0  0  0  0  0  0  0  0  0  0
   -1.9069    0.5106   -0.7166 H   0  0  0  0  0  0  0  0  0  0  0  0
    1.2684    1.3519   -2.6065 H   0  0  0  0  0  0  0  0  0  0  0  0
    0.5584   -1.2380    0.2878 H   0  0  0  0  0  0  0  0  0  0  0  0
    3.0444    0.4329   -1.2647 H   0  0  0  0  0  0  0  0  0  0  0  0
    2.1023   -0.1269    1.6053 H   0  0  0  0  0  0  0  0  0  0  0  0
    5.1003    0.7493   -0.6146 H   0  0  0  0  0  0  0  0  0  0  0  0
    8.7170   -0.0893    1.8749 H   0  0  0  0  0  0  0  0  0  0  0  0
    3.6942   -0.7354    3.1794 H   0  0  0  0  0  0  0  0  0  0  0  0
    5.7018   -1.7242    6.0544 H   0  0  0  0  0  0  0  0  0  0  0  0
    4.4557   -0.6526    5.4089 H   0  0  0  0  0  0  0  0  0  0  0  0
    4.7501   -2.2788    4.6746 H   0  0  0  0  0  0  0  0  0  0  0  0
    7.1046    0.8741   -1.8014 H   0  0  0  0  0  0  0  0  0  0  0  0
    6.9598    2.4044   -0.8498 H   0  0  0  0  0  0  0  0  0  0  0  0
    8.5391    1.8088   -1.3663 H   0  0  0  0  0  0  0  0  0  0  0  0
  1  2  1  0
  2  3  1  0
  3  4  2  0
  4  5  1  0
  5  6  2  0
  6  7  1  0
  7  8  2  0
  8  9  1  0
  7 10  1  0
 10 11  1  0
  5 12  1  0
 12 13  2  0
 13 14  1  0
 14 15  2  0
 14 16  1  0
 16 17  2  0
 17 18  1  0
 17 19  1  0
 19 20  2  0
 20 21  1  0
 21 22  2  0
 22 23  1  0
 23 24  2  0
 24 25  1  0
 24 26  1  0
 26 27  2  0
 26 28  1  0
 28 29  1  0
 23 30  1  0
 30 31  1  0
  8  3  1  0
 27 21  1  0
  1 32  1  0
  1 33  1  0
  1 34  1  0
  4 35  1  0
  6 36  1  0
  9 37  1  0
 11 38  1  0
 11 39  1  0
 11 40  1  0
 12 41  1  0
 13 42  1  0
 16 43  1  0
 18 44  1  0
 19 45  1  0
 20 46  1  0
 22 47  1  0
 25 48  1  0
 27 49  1  0
 29 50  1  0
 29 51  1  0
 29 52  1  0
 31 53  1  0
 31 54  1  0
 31 55  1  0
M  END
$$$$
