
     RDKit          3D

 35 38  0  0  0  0  0  0  0  0999 V2000
    5.0839   -0.1541   -0.3754 C   0  0  0  0  0  0  0  0  0  0  0  0
    3.9531   -0.8480    0.3695 C   0  0  0  0  0  0  0  0  0  0  0  0
    3.5558   -2.1774   -0.2981 C   0  0  0  0  0  0  0  0  0  0  0  0
    2.1101   -2.2839   -0.3083 O   0  0  0  0  0  0  0  0  0  0  0  0
    1.6927   -0.9892   -0.0379 C   0  0  0  0  0  0  0  0  0  0  0  0
    2.6522   -0.1539    0.3278 C   0  0  0  0  0  0  0  0  0  0  0  0
    2.3365    1.2105    0.7243 C   0  0  0  0  0  0  0  0  0  0  0  0
    3.1432    1.9214    1.3020 O   0  0  0  0  0  0  0  0  0  0  0  0
    0.9362    1.7031    0.3660 C   0  0  0  0  0  0  0  0  0  0  0  0
    0.7745    2.9032    0.1970 O   0  0  0  0  0  0  0  0  0  0  0  0
   -0.1480    0.6828    0.1741 C   0  0  0  0  0  0  0  0  0  0  0  0
    0.2743   -0.6435   -0.0640 C   0  0  0  0  0  0  0  0  0  0  0  0
   -0.6797   -1.6245   -0.3173 C   0  0  0  0  0  0  0  0  0  0  0  0
   -2.0353   -1.3026   -0.3246 C   0  0  0  0  0  0  0  0  0  0  0  0
   -2.4974    0.0036   -0.0682 C   0  0  0  0  0  0  0  0  0  0  0  0
   -3.8888    0.3077   -0.0639 C   0  0  0  0  0  0  0  0  0  0  0  0
   -4.3232    1.6105    0.2112 C   0  0  0  0  0  0  0  0  0  0  0  0
   -3.4053    2.6099    0.4840 C   0  0  0  0  0  0  0  0  0  0  0  0
   -2.0418    2.3202    0.4778 C   0  0  0  0  0  0  0  0  0  0  0  0
   -1.5393    1.0253    0.1942 C   0  0  0  0  0  0  0  0  0  0  0  0
   -4.9400   -0.7379   -0.3450 C   0  0  0  0  0  0  0  0  0  0  0  0
    4.8029    0.0848   -1.4073 H   0  0  0  0  0  0  0  0  0  0  0  0
    5.9728   -0.7930   -0.4065 H   0  0  0  0  0  0  0  0  0  0  0  0
    5.3628    0.7824    0.1187 H   0  0  0  0  0  0  0  0  0  0  0  0
    4.2493   -1.0243    1.4105 H   0  0  0  0  0  0  0  0  0  0  0  0
    3.9630   -3.0341    0.2499 H   0  0  0  0  0  0  0  0  0  0  0  0
    3.9008   -2.2448   -1.3373 H   0  0  0  0  0  0  0  0  0  0  0  0
   -0.3837   -2.6542   -0.5103 H   0  0  0  0  0  0  0  0  0  0  0  0
   -2.7350   -2.1107   -0.5293 H   0  0  0  0  0  0  0  0  0  0  0  0
   -5.3837    1.8531    0.2181 H   0  0  0  0  0  0  0  0  0  0  0  0
   -3.7431    3.6197    0.7032 H   0  0  0  0  0  0  0  0  0  0  0  0
   -1.3756    3.1475    0.7113 H   0  0  0  0  0  0  0  0  0  0  0  0
   -5.9502   -0.3155   -0.3101 H   0  0  0  0  0  0  0  0  0  0  0  0
   -4.8943   -1.5345    0.4044 H   0  0  0  0  0  0  0  0  0  0  0  0
   -4.7997   -1.1599   -1.3454 H   0  0  0  0  0  0  0  0  0  0  0  0
  1  2  1  0
  2  3  1  0
  3  4  1  0
  4  5  1  0
  5  6  2  0
  6  7  1  0
  7  8  2  0
  7  9  1  0
  9 10  2  0
  9 11  1  0
 11 12  2  0
 12 13  1  0
 13 14  2  0
 14 15  1  0
 15 16  2  0
 16 17  1  0
 17 18  2  0
 18 19  1  0
 19 20  2  0
 16 21  1  0
  6  2  1  0
 12  5  1  0
 20 11  1  0
 20 15  1  0
  1 22  1  0
  1 23  1  0
  1 24  1  0
  2 25  1  0
  3 26  1  0
  3 27  1  0
 13 28  1  0
 14 29  1  0
 17 30  1  0
 18 31  1  0
 19 32  1  0
 21 33  1  0
 21 34  1  0
 21 35  1  0
M  END
$$$$
