
     RDKit          3D

 65 67  0  0  0  0  0  0  0  0999 V2000
   11.8821    0.0311    1.5772 C   0  0  0  0  0  0  0  0  0  0  0  0
   10.5878    0.4996    1.2196 O   0  0  0  0  0  0  0  0  0  0  0  0
    9.9488   -0.3681    0.2842 C   0  0  0  0  0  0  0  0  0  0  0  0
    8.5666    0.1918   -0.0475 C   0  0  0  0  0  0  0  0  0  0  0  0
    7.8900   -0.6185   -1.0091 O   0  0  0  0  0  0  0  0  0  0  0  0
    7.1281   -1.6874   -0.4345 C   0  0  0  0  0  0  0  0  0  0  0  0
    5.7415   -1.2271    0.0340 C   0  0  0  0  0  0  0  0  0  0  0  0
    4.8003   -1.1308   -1.0429 O   0  0  0  0  0  0  0  0  0  0  0  0
    4.9113    0.0468   -1.8455 C   0  0  0  0  0  0  0  0  0  0  0  0
    4.3510    1.2955   -1.1610 C   0  0  0  0  0  0  0  0  0  0  0  0
    2.9425    1.1203   -0.9096 O   0  0  0  0  0  0  0  0  0  0  0  0
    2.6004    0.6966    0.3358 C   0  0  0  0  0  0  0  0  0  0  0  0
    3.3720    0.5720    1.2765 O   0  0  0  0  0  0  0  0  0  0  0  0
    1.1468    0.3904    0.4271 C   0  0  0  0  0  0  0  0  0  0  0  0
    0.2908    0.7955   -0.5347 C   0  0  0  0  0  0  0  0  0  0  0  0
   -1.1604    0.5593   -0.5780 C   0  0  0  0  0  0  0  0  0  0  0  0
   -2.0124    0.9391    0.4671 C   0  0  0  0  0  0  0  0  0  0  0  0
   -3.4014    0.7296    0.3809 C   0  0  0  0  0  0  0  0  0  0  0  0
   -3.9474    0.1442   -0.7773 C   0  0  0  0  0  0  0  0  0  0  0  0
   -3.0889   -0.2191   -1.8261 C   0  0  0  0  0  0  0  0  0  0  0  0
   -1.7107   -0.0120   -1.7283 C   0  0  0  0  0  0  0  0  0  0  0  0
   -5.3402   -0.0610   -0.8582 C   0  0  0  0  0  0  0  0  0  0  0  0
   -6.2229    0.2909    0.1780 C   0  0  0  0  0  0  0  0  0  0  0  0
   -5.6450    0.8767    1.3139 C   0  0  0  0  0  0  0  0  0  0  0  0
   -4.2642    1.0921    1.4204 C   0  0  0  0  0  0  0  0  0  0  0  0
   -7.5915    0.0729    0.0785 N   0  0  0  0  0  0  0  0  0  0  0  0
   -8.1224   -0.9669   -0.8100 C   0  0  0  0  0  0  0  0  0  0  0  0
   -9.4100   -1.5544   -0.2376 C   0  0  0  0  0  0  0  0  0  0  0  0
  -10.4874   -0.4930   -0.0311 C   0  0  0  0  0  0  0  0  0  0  0  0
   -9.9053    0.8932    0.2335 C   0  0  0  0  0  0  0  0  0  0  0  0
   -8.5363    0.8290    0.9063 C   0  0  0  0  0  0  0  0  0  0  0  0
    0.7338   -0.3362    1.5792 C   0  0  0  0  0  0  0  0  0  0  0  0
    0.3741   -0.9176    2.5180 N   0  0  0  0  0  0  0  0  0  0  0  0
   11.8121   -0.9395    2.0770 H   0  0  0  0  0  0  0  0  0  0  0  0
   12.5218   -0.0450    0.6926 H   0  0  0  0  0  0  0  0  0  0  0  0
   12.3263    0.7537    2.2691 H   0  0  0  0  0  0  0  0  0  0  0  0
    9.8622   -1.3737    0.7119 H   0  0  0  0  0  0  0  0  0  0  0  0
   10.5505   -0.4453   -0.6299 H   0  0  0  0  0  0  0  0  0  0  0  0
    7.9697    0.3283    0.8619 H   0  0  0  0  0  0  0  0  0  0  0  0
    8.6817    1.1892   -0.4841 H   0  0  0  0  0  0  0  0  0  0  0  0
    7.0173   -2.4494   -1.2141 H   0  0  0  0  0  0  0  0  0  0  0  0
    7.6835   -2.1322    0.3985 H   0  0  0  0  0  0  0  0  0  0  0  0
    5.7895   -0.2880    0.5894 H   0  0  0  0  0  0  0  0  0  0  0  0
    5.3399   -1.9909    0.7087 H   0  0  0  0  0  0  0  0  0  0  0  0
    5.9407    0.2086   -2.1743 H   0  0  0  0  0  0  0  0  0  0  0  0
    4.3158   -0.1523   -2.7436 H   0  0  0  0  0  0  0  0  0  0  0  0
    4.4456    2.1511   -1.8383 H   0  0  0  0  0  0  0  0  0  0  0  0
    4.8942    1.5503   -0.2457 H   0  0  0  0  0  0  0  0  0  0  0  0
    0.6579    1.3388   -1.4042 H   0  0  0  0  0  0  0  0  0  0  0  0
   -1.6042    1.4051    1.3632 H   0  0  0  0  0  0  0  0  0  0  0  0
   -3.4903   -0.6700   -2.7313 H   0  0  0  0  0  0  0  0  0  0  0  0
   -1.0757   -0.3079   -2.5609 H   0  0  0  0  0  0  0  0  0  0  0  0
   -5.7403   -0.4840   -1.7767 H   0  0  0  0  0  0  0  0  0  0  0  0
   -6.2595    1.1594    2.1631 H   0  0  0  0  0  0  0  0  0  0  0  0
   -3.8746    1.5394    2.3327 H   0  0  0  0  0  0  0  0  0  0  0  0
   -7.4110   -1.7946   -0.9287 H   0  0  0  0  0  0  0  0  0  0  0  0
   -8.3087   -0.5393   -1.8038 H   0  0  0  0  0  0  0  0  0  0  0  0
   -9.1876   -2.0292    0.7276 H   0  0  0  0  0  0  0  0  0  0  0  0
   -9.7898   -2.3444   -0.8965 H   0  0  0  0  0  0  0  0  0  0  0  0
  -11.1282   -0.7971    0.8057 H   0  0  0  0  0  0  0  0  0  0  0  0
  -11.1365   -0.4444   -0.9131 H   0  0  0  0  0  0  0  0  0  0  0  0
  -10.6032    1.4795    0.8417 H   0  0  0  0  0  0  0  0  0  0  0  0
   -9.8067    1.4252   -0.7225 H   0  0  0  0  0  0  0  0  0  0  0  0
   -8.6218    0.3639    1.8952 H   0  0  0  0  0  0  0  0  0  0  0  0
   -8.1923    1.8607    1.0438 H   0  0  0  0  0  0  0  0  0  0  0  0
  1  2  1  0
  2  3  1  0
  3  4  1  0
  4  5  1  0
  5  6  1  0
  6  7  1  0
  7  8  1  0
  8  9  1  0
  9 10  1  0
 10 11  1  0
 11 12  1  0
 12 13  2  0
 12 14  1  0
 14 15  2  0
 15 16  1  0
 16 17  2  0
 17 18  1  0
 18 19  2  0
 19 20  1  0
 20 21  2  0
 19 22  1  0
 22 23  2  0
 23 24  1  0
 24 25  2  0
 23 26  1  0
 26 27  1  0
 27 28  1  0
 28 29  1  0
 29 30  1  0
 30 31  1  0
 14 32  1  0
 32 33  3  0
 21 16  1  0
 25 18  1  0
 31 26  1  0
  1 34  1  0
  1 35  1  0
  1 36  1  0
  3 37  1  0
  3 38  1  0
  4 39  1  0
  4 40  1  0
  6 41  1  0
  6 42  1  0
  7 43  1  0
  7 44  1  0
  9 45  1  0
  9 46  1  0
 10 47  1  0
 10 48  1  0
 15 49  1  0
 17 50  1  0
 20 51  1  0
 21 52  1  0
 22 53  1  0
 24 54  1  0
 25 55  1  0
 27 56  1  0
 27 57  1  0
 28 58  1  0
 28 59  1  0
 29 60  1  0
 29 61  1  0
 30 62  1  0
 30 63  1  0
 31 64  1  0
 31 65  1  0
M  END
$$$$
