
     RDKit          3D

 32 34  0  0  0  0  0  0  0  0999 V2000
   -4.4697    1.4048    0.4084 C   0  0  0  0  0  0  0  0  0  0  0  0
   -3.4893    0.3582    0.0283 C   0  0  0  0  0  0  0  0  0  0  0  0
   -3.6615   -0.8700   -0.5771 C   0  0  0  0  0  0  0  0  0  0  0  0
   -2.3789   -1.4825   -0.7019 C   0  0  0  0  0  0  0  0  0  0  0  0
   -1.4523   -0.5957   -0.1580 C   0  0  0  0  0  0  0  0  0  0  0  0
   -2.1441    0.5240    0.2349 N   0  0  0  0  0  0  0  0  0  0  0  0
   -0.0528   -0.7029    0.0669 C   0  0  0  0  0  0  0  0  0  0  0  0
    0.8563    0.2795   -0.0389 C   0  0  0  0  0  0  0  0  0  0  0  0
    2.3037    0.0688    0.1312 C   0  0  0  0  0  0  0  0  0  0  0  0
    3.0683   -0.9859    0.5960 C   0  0  0  0  0  0  0  0  0  0  0  0
    4.4584   -0.8372    0.6105 C   0  0  0  0  0  0  0  0  0  0  0  0
    5.0683    0.3492    0.1581 C   0  0  0  0  0  0  0  0  0  0  0  0
    4.2910    1.4177   -0.2904 C   0  0  0  0  0  0  0  0  0  0  0  0
    2.9206    1.2570   -0.2804 C   0  0  0  0  0  0  0  0  0  0  0  0
    1.9699    2.2108   -0.6296 N   0  0  0  0  0  0  0  0  0  0  0  0
    0.6867    1.7239   -0.4562 C   0  0  0  0  0  0  0  0  0  0  0  0
   -0.3463    2.3592   -0.5864 O   0  0  0  0  0  0  0  0  0  0  0  0
   -2.1055   -2.8119   -1.3122 C   0  0  0  0  0  0  0  0  0  0  0  0
   -4.7341    1.3025    1.4662 H   0  0  0  0  0  0  0  0  0  0  0  0
   -5.3782    1.3255   -0.1899 H   0  0  0  0  0  0  0  0  0  0  0  0
   -4.0464    2.4070    0.2542 H   0  0  0  0  0  0  0  0  0  0  0  0
   -4.6103   -1.2863   -0.9001 H   0  0  0  0  0  0  0  0  0  0  0  0
   -1.7155    1.3768    0.5921 H   0  0  0  0  0  0  0  0  0  0  0  0
    0.2964   -1.7110    0.3009 H   0  0  0  0  0  0  0  0  0  0  0  0
    2.6169   -1.9029    0.9542 H   0  0  0  0  0  0  0  0  0  0  0  0
    5.0852   -1.6483    0.9777 H   0  0  0  0  0  0  0  0  0  0  0  0
    6.1542    0.4369    0.1699 H   0  0  0  0  0  0  0  0  0  0  0  0
    4.7548    2.3383   -0.6301 H   0  0  0  0  0  0  0  0  0  0  0  0
    2.1584    3.1588   -0.9139 H   0  0  0  0  0  0  0  0  0  0  0  0
   -1.5131   -3.4401   -0.6348 H   0  0  0  0  0  0  0  0  0  0  0  0
   -1.5525   -2.6837   -2.2498 H   0  0  0  0  0  0  0  0  0  0  0  0
   -3.0383   -3.3406   -1.5348 H   0  0  0  0  0  0  0  0  0  0  0  0
  1  2  1  0
  2  3  2  0
  3  4  1  0
  4  5  2  0
  5  6  1  0
  5  7  1  0
  7  8  2  0
  8  9  1  0
  9 10  2  0
 10 11  1  0
 11 12  2  0
 12 13  1  0
 13 14  2  0
 14 15  1  0
 15 16  1  0
 16 17  2  0
  4 18  1  0
  6  2  1  0
 16  8  1  0
 14  9  1  0
  1 19  1  0
  1 20  1  0
  1 21  1  0
  3 22  1  0
  6 23  1  0
  7 24  1  0
 10 25  1  0
 11 26  1  0
 12 27  1  0
 13 28  1  0
 15 29  1  0
 18 30  1  0
 18 31  1  0
 18 32  1  0
M  END
$$$$
