
     RDKit          3D

 28 29  0  0  0  0  0  0  0  0999 V2000
    4.2433   -1.3052   -0.4817 C   0  0  0  0  0  0  0  0  0  0  0  0
    3.2807   -0.1903   -0.6080 C   0  0  0  0  0  0  0  0  0  0  0  0
    2.2956    0.3201    0.1951 C   0  0  0  0  0  0  0  0  0  0  0  0
    1.7481    1.3931   -0.5338 C   0  0  0  0  0  0  0  0  0  0  0  0
    2.3728    1.5422   -1.7078 N   0  0  0  0  0  0  0  0  0  0  0  0
    3.3271    0.5349   -1.7645 O   0  0  0  0  0  0  0  0  0  0  0  0
    0.7222    2.2530   -0.1948 N   0  0  0  0  0  0  0  0  0  0  0  0
   -0.2095    2.1962    1.1753 S   0  0  0  0  0  6  0  0  0  0  0  0
    0.6315    1.8756    2.3116 O   0  0  0  0  0  0  0  0  0  0  0  0
   -1.0298    3.3910    1.1500 O   0  0  0  0  0  0  0  0  0  0  0  0
   -1.2893    0.8171    0.8661 C   0  0  0  0  0  0  0  0  0  0  0  0
   -1.0832   -0.3942    1.5343 C   0  0  0  0  0  0  0  0  0  0  0  0
   -1.9477   -1.4610    1.2793 C   0  0  0  0  0  0  0  0  0  0  0  0
   -3.0401   -1.3185    0.4145 C   0  0  0  0  0  0  0  0  0  0  0  0
   -3.2131   -0.1124   -0.2700 C   0  0  0  0  0  0  0  0  0  0  0  0
   -2.3554    0.9669   -0.0303 C   0  0  0  0  0  0  0  0  0  0  0  0
   -3.8112   -2.4407    0.0735 N   0  0  0  0  0  0  0  0  0  0  0  0
    3.9604   -1.9565    0.3500 H   0  0  0  0  0  0  0  0  0  0  0  0
    4.2562   -1.9001   -1.3984 H   0  0  0  0  0  0  0  0  0  0  0  0
    5.2560   -0.9317   -0.2987 H   0  0  0  0  0  0  0  0  0  0  0  0
    2.0316   -0.0537    1.1662 H   0  0  0  0  0  0  0  0  0  0  0  0
    0.5146    2.9935   -0.8529 H   0  0  0  0  0  0  0  0  0  0  0  0
   -0.2684   -0.5130    2.2528 H   0  0  0  0  0  0  0  0  0  0  0  0
   -1.7886   -2.4135    1.7812 H   0  0  0  0  0  0  0  0  0  0  0  0
   -4.0169    0.0077   -0.9927 H   0  0  0  0  0  0  0  0  0  0  0  0
   -2.5244    1.9123   -0.5400 H   0  0  0  0  0  0  0  0  0  0  0  0
   -4.7369   -2.1879   -0.2909 H   0  0  0  0  0  0  0  0  0  0  0  0
   -3.3255   -3.0249   -0.6075 H   0  0  0  0  0  0  0  0  0  0  0  0
  1  2  1  0
  2  3  2  0
  3  4  1  0
  4  5  2  0
  5  6  1  0
  4  7  1  0
  7  8  1  0
  8  9  2  0
  8 10  2  0
  8 11  1  0
 11 12  2  0
 12 13  1  0
 13 14  2  0
 14 15  1  0
 15 16  2  0
 14 17  1  0
  6  2  1  0
 16 11  1  0
  1 18  1  0
  1 19  1  0
  1 20  1  0
  3 21  1  0
  7 22  1  0
 12 23  1  0
 13 24  1  0
 15 25  1  0
 16 26  1  0
 17 27  1  0
 17 28  1  0
M  END
$$$$
