
     RDKit          3D

 41 43  0  0  0  0  0  0  0  0999 V2000
    1.4941    1.5215   -0.6590 C   0  0  0  0  0  0  0  0  0  0  0  0
    1.2814    0.1020   -0.2671 C   0  0  0  0  0  0  0  0  0  0  0  0
    0.0976   -0.6048   -0.3977 C   0  0  0  0  0  0  0  0  0  0  0  0
    0.3294   -1.8934    0.0212 N   0  0  0  0  0  0  0  0  0  0  0  0
    1.6269   -2.0179    0.4507 C   0  0  0  0  0  0  0  0  0  0  0  0
    2.2284   -0.7720    0.3600 C   0  0  0  0  0  0  0  0  0  0  0  0
    3.5918   -0.3952    0.8746 C   0  0  0  0  0  0  0  0  0  0  0  0
    4.6494   -0.2647   -0.2235 C   0  0  0  0  0  0  0  0  0  0  0  0
    5.3922    1.0499   -0.1876 C   0  0  0  0  0  0  0  0  0  0  0  0
    6.5857    1.1917   -0.4273 O   0  0  0  0  0  0  0  0  0  0  0  0
    4.6327    2.1291    0.0523 O   0  0  0  0  0  0  0  0  0  0  0  0
    2.1498   -3.3194    0.9402 C   0  0  0  0  0  0  0  0  0  0  0  0
   -1.1904   -0.2449   -0.8547 C   0  0  0  0  0  0  0  0  0  0  0  0
   -2.2305   -0.0601   -0.0273 C   0  0  0  0  0  0  0  0  0  0  0  0
   -3.5431    0.4767   -0.4239 C   0  0  0  0  0  0  0  0  0  0  0  0
   -4.0917    0.8384   -1.6439 C   0  0  0  0  0  0  0  0  0  0  0  0
   -5.3955    1.3477   -1.6556 C   0  0  0  0  0  0  0  0  0  0  0  0
   -6.1303    1.4902   -0.4590 C   0  0  0  0  0  0  0  0  0  0  0  0
   -5.5630    1.1269    0.7667 C   0  0  0  0  0  0  0  0  0  0  0  0
   -4.2778    0.6234    0.7538 C   0  0  0  0  0  0  0  0  0  0  0  0
   -3.5431    0.1873    1.8509 N   0  0  0  0  0  0  0  0  0  0  0  0
   -2.2874   -0.2765    1.4739 C   0  0  0  0  0  0  0  0  0  0  0  0
   -1.4604   -0.7725    2.2085 O   0  0  0  0  0  0  0  0  0  0  0  0
    2.4322    1.6221   -1.2125 H   0  0  0  0  0  0  0  0  0  0  0  0
    1.5211    2.1824    0.2251 H   0  0  0  0  0  0  0  0  0  0  0  0
    0.6961    1.8827   -1.3221 H   0  0  0  0  0  0  0  0  0  0  0  0
   -0.3722   -2.6228    0.0643 H   0  0  0  0  0  0  0  0  0  0  0  0
    3.4910    0.5188    1.4767 H   0  0  0  0  0  0  0  0  0  0  0  0
    3.9238   -1.1638    1.5847 H   0  0  0  0  0  0  0  0  0  0  0  0
    5.4007   -1.0636   -0.0706 H   0  0  0  0  0  0  0  0  0  0  0  0
    4.2294   -0.3901   -1.2323 H   0  0  0  0  0  0  0  0  0  0  0  0
    5.2611    2.8830   -0.0101 H   0  0  0  0  0  0  0  0  0  0  0  0
    2.4803   -3.2440    1.9833 H   0  0  0  0  0  0  0  0  0  0  0  0
    1.3916   -4.1120    0.8742 H   0  0  0  0  0  0  0  0  0  0  0  0
    3.0038   -3.6193    0.3214 H   0  0  0  0  0  0  0  0  0  0  0  0
   -1.2850   -0.0053   -1.9127 H   0  0  0  0  0  0  0  0  0  0  0  0
   -3.5398    0.7371   -2.5722 H   0  0  0  0  0  0  0  0  0  0  0  0
   -5.8530    1.6358   -2.5956 H   0  0  0  0  0  0  0  0  0  0  0  0
   -7.1413    1.8843   -0.4972 H   0  0  0  0  0  0  0  0  0  0  0  0
   -6.1196    1.2430    1.6911 H   0  0  0  0  0  0  0  0  0  0  0  0
   -3.8663    0.1683    2.8088 H   0  0  0  0  0  0  0  0  0  0  0  0
  1  2  1  0
  2  3  2  0
  3  4  1  0
  4  5  1  0
  5  6  2  0
  6  7  1  0
  7  8  1  0
  8  9  1  0
  9 10  2  0
  9 11  1  0
  5 12  1  0
  3 13  1  0
 13 14  2  0
 14 15  1  0
 15 16  2  0
 16 17  1  0
 17 18  2  0
 18 19  1  0
 19 20  2  0
 20 21  1  0
 21 22  1  0
 22 23  2  0
  6  2  1  0
 22 14  1  0
 20 15  1  0
  1 24  1  0
  1 25  1  0
  1 26  1  0
  4 27  1  0
  7 28  1  0
  7 29  1  0
  8 30  1  0
  8 31  1  0
 11 32  1  0
 12 33  1  0
 12 34  1  0
 12 35  1  0
 13 36  1  0
 16 37  1  0
 17 38  1  0
 18 39  1  0
 19 40  1  0
 21 41  1  0
M  END
$$$$
