
     RDKit          3D

 56 58  0  0  0  0  0  0  0  0999 V2000
    5.9037    0.9021   -2.0005 C   0  0  0  0  0  0  0  0  0  0  0  0
    6.2891    0.1356   -0.7413 C   0  0  0  0  0  0  0  0  0  0  0  0
    5.5461   -1.1257   -0.5443 N   0  0  0  0  0  0  0  0  0  0  0  0
    6.1119   -1.8555    0.6096 C   0  0  0  0  0  0  0  0  0  0  0  0
    5.5191   -3.2409    0.8413 C   0  0  0  0  0  0  0  0  0  0  0  0
    4.0830   -0.9425   -0.4702 C   0  0  0  0  0  0  0  0  0  0  0  0
    3.5292   -0.0592    0.6622 C   0  0  0  0  0  0  0  0  0  0  0  0
    2.0801   -0.0356    0.6687 N   0  0  0  0  0  0  0  0  0  0  0  0
    1.3856    0.4201    1.7662 C   0  0  0  0  0  0  0  0  0  0  0  0
    1.9631    0.7765    2.7970 O   0  0  0  0  0  0  0  0  0  0  0  0
   -0.0702    0.5079    1.5911 C   0  0  0  0  0  0  0  0  0  0  0  0
   -0.8848    1.3510    2.3453 C   0  0  0  0  0  0  0  0  0  0  0  0
   -2.1711    1.2179    1.8962 N   0  0  0  0  0  0  0  0  0  0  0  0
   -2.2501    0.2489    0.9354 C   0  0  0  0  0  0  0  0  0  0  0  0
   -0.9561   -0.2119    0.6979 C   0  0  0  0  0  0  0  0  0  0  0  0
   -0.5813   -1.2703   -0.2860 C   0  0  0  0  0  0  0  0  0  0  0  0
   -3.5168   -0.1584    0.4373 C   0  0  0  0  0  0  0  0  0  0  0  0
   -4.5528    0.6383    0.1320 C   0  0  0  0  0  0  0  0  0  0  0  0
   -5.8026    0.1477   -0.4806 C   0  0  0  0  0  0  0  0  0  0  0  0
   -6.5479    1.2858   -0.8134 C   0  0  0  0  0  0  0  0  0  0  0  0
   -7.7807    1.2274   -1.4341 C   0  0  0  0  0  0  0  0  0  0  0  0
   -8.2856   -0.0431   -1.7167 C   0  0  0  0  0  0  0  0  0  0  0  0
   -7.5525   -1.1914   -1.3673 C   0  0  0  0  0  0  0  0  0  0  0  0
   -6.3042   -1.1147   -0.7452 C   0  0  0  0  0  0  0  0  0  0  0  0
   -8.0682   -2.3986   -1.6372 F   0  0  0  0  0  0  0  0  0  0  0  0
   -5.8818    2.4371   -0.4104 N   0  0  0  0  0  0  0  0  0  0  0  0
   -4.6889    2.1413    0.2205 C   0  0  0  0  0  0  0  0  0  0  0  0
   -3.9464    2.9380    0.7621 O   0  0  0  0  0  0  0  0  0  0  0  0
   -0.5561    2.3088    3.4407 C   0  0  0  0  0  0  0  0  0  0  0  0
    5.9668    0.2648   -2.8897 H   0  0  0  0  0  0  0  0  0  0  0  0
    6.5851    1.7474   -2.1412 H   0  0  0  0  0  0  0  0  0  0  0  0
    4.8905    1.3115   -1.9336 H   0  0  0  0  0  0  0  0  0  0  0  0
    7.3584   -0.1000   -0.8345 H   0  0  0  0  0  0  0  0  0  0  0  0
    6.1904    0.7910    0.1328 H   0  0  0  0  0  0  0  0  0  0  0  0
    7.1862   -2.0021    0.4285 H   0  0  0  0  0  0  0  0  0  0  0  0
    6.0302   -1.2651    1.5293 H   0  0  0  0  0  0  0  0  0  0  0  0
    4.4815   -3.1911    1.1832 H   0  0  0  0  0  0  0  0  0  0  0  0
    5.5609   -3.8484   -0.0679 H   0  0  0  0  0  0  0  0  0  0  0  0
    6.0920   -3.7645    1.6162 H   0  0  0  0  0  0  0  0  0  0  0  0
    3.7261   -0.5457   -1.4292 H   0  0  0  0  0  0  0  0  0  0  0  0
    3.5965   -1.9270   -0.4303 H   0  0  0  0  0  0  0  0  0  0  0  0
    3.8609   -0.4230    1.6384 H   0  0  0  0  0  0  0  0  0  0  0  0
    3.8684    0.9786    0.5527 H   0  0  0  0  0  0  0  0  0  0  0  0
    1.5986    0.0302   -0.2221 H   0  0  0  0  0  0  0  0  0  0  0  0
   -2.9550    1.7794    2.2219 H   0  0  0  0  0  0  0  0  0  0  0  0
   -1.4375   -1.8775   -0.5964 H   0  0  0  0  0  0  0  0  0  0  0  0
   -0.1611   -0.8100   -1.1855 H   0  0  0  0  0  0  0  0  0  0  0  0
    0.1588   -1.9571    0.1369 H   0  0  0  0  0  0  0  0  0  0  0  0
   -3.6058   -1.2228    0.2380 H   0  0  0  0  0  0  0  0  0  0  0  0
   -8.3383    2.1230   -1.6928 H   0  0  0  0  0  0  0  0  0  0  0  0
   -9.2476   -0.1589   -2.2072 H   0  0  0  0  0  0  0  0  0  0  0  0
   -5.7693   -2.0249   -0.4885 H   0  0  0  0  0  0  0  0  0  0  0  0
   -6.2323    3.3786   -0.4973 H   0  0  0  0  0  0  0  0  0  0  0  0
   -0.1342    1.7805    4.2994 H   0  0  0  0  0  0  0  0  0  0  0  0
   -1.4487    2.8418    3.7859 H   0  0  0  0  0  0  0  0  0  0  0  0
    0.1654    3.0546    3.0985 H   0  0  0  0  0  0  0  0  0  0  0  0
  1  2  1  0
  2  3  1  0
  3  4  1  0
  4  5  1  0
  3  6  1  0
  6  7  1  0
  7  8  1  0
  8  9  1  0
  9 10  2  0
  9 11  1  0
 11 12  2  0
 12 13  1  0
 13 14  1  0
 14 15  2  0
 15 16  1  0
 14 17  1  0
 17 18  2  0
 18 19  1  0
 19 20  1  0
 20 21  2  0
 21 22  1  0
 22 23  2  0
 23 24  1  0
 23 25  1  0
 20 26  1  0
 26 27  1  0
 27 28  2  0
 12 29  1  0
 15 11  1  0
 27 18  1  0
 24 19  2  0
  1 30  1  0
  1 31  1  0
  1 32  1  0
  2 33  1  0
  2 34  1  0
  4 35  1  0
  4 36  1  0
  5 37  1  0
  5 38  1  0
  5 39  1  0
  6 40  1  0
  6 41  1  0
  7 42  1  0
  7 43  1  0
  8 44  1  0
 13 45  1  0
 16 46  1  0
 16 47  1  0
 16 48  1  0
 17 49  1  0
 21 50  1  0
 22 51  1  0
 24 52  1  0
 26 53  1  0
 29 54  1  0
 29 55  1  0
 29 56  1  0
M  END
$$$$
