
     RDKit          3D

 62 66  0  0  0  0  0  0  0  0999 V2000
   -3.6172    3.7057   -1.4733 C   0  0  0  0  0  0  0  0  0  0  0  0
   -3.7696    2.3070   -0.8965 C   0  0  0  0  0  0  0  0  0  0  0  0
   -4.9543    1.7086   -0.6165 C   0  0  0  0  0  0  0  0  0  0  0  0
   -4.9795    0.3589    0.0441 C   0  0  0  0  0  0  0  0  0  0  0  0
   -6.0699   -0.2018    0.1827 O   0  0  0  0  0  0  0  0  0  0  0  0
   -3.7822   -0.1856    0.4995 N   0  0  0  0  0  0  0  0  0  0  0  0
   -2.5202    0.3771    0.1035 C   0  0  0  0  0  0  0  0  0  0  0  0
   -1.3795   -0.3011    0.4190 N   0  0  0  0  0  0  0  0  0  0  0  0
   -0.2042    0.1602   -0.0235 C   0  0  0  0  0  0  0  0  0  0  0  0
   -0.1140    1.2580   -0.7610 N   0  0  0  0  0  0  0  0  0  0  0  0
   -1.2569    1.9228   -1.0379 C   0  0  0  0  0  0  0  0  0  0  0  0
   -2.5209    1.5601   -0.6193 C   0  0  0  0  0  0  0  0  0  0  0  0
    0.9127   -0.5730    0.3239 N   0  0  0  0  0  0  0  0  0  0  0  0
    2.2752   -0.4640    0.0985 C   0  0  0  0  0  0  0  0  0  0  0  0
    3.0565   -1.3910    0.7088 N   0  0  0  0  0  0  0  0  0  0  0  0
    4.4110   -1.2834    0.5272 C   0  0  0  0  0  0  0  0  0  0  0  0
    5.0945   -0.3133   -0.2395 C   0  0  0  0  0  0  0  0  0  0  0  0
    4.2326    0.5854   -0.8681 C   0  0  0  0  0  0  0  0  0  0  0  0
    2.8402    0.5200   -0.7025 C   0  0  0  0  0  0  0  0  0  0  0  0
    6.4747   -0.2404   -0.3633 N   0  0  0  0  0  0  0  0  0  0  0  0
    7.1341    0.9790   -0.8605 C   0  0  0  0  0  0  0  0  0  0  0  0
    8.5255    1.1543   -0.2179 C   0  0  0  0  0  0  0  0  0  0  0  0
    9.4626    0.0191   -0.3402 N   0  0  0  0  0  0  0  0  0  0  0  0
    8.7535   -1.2321   -0.6551 C   0  0  0  0  0  0  0  0  0  0  0  0
    7.3422   -1.3797   -0.0208 C   0  0  0  0  0  0  0  0  0  0  0  0
   -3.7296   -1.5110    1.1896 C   0  0  0  0  0  0  0  0  0  0  0  0
   -4.9147   -1.8572    2.1126 C   0  0  0  0  0  0  0  0  0  0  0  0
   -5.7844   -2.8716    1.3601 C   0  0  0  0  0  0  0  0  0  0  0  0
   -5.1139   -3.1260    0.0183 C   0  0  0  0  0  0  0  0  0  0  0  0
   -3.6699   -2.6868    0.2030 C   0  0  0  0  0  0  0  0  0  0  0  0
   -6.2575    2.4000   -0.9975 C   0  0  0  0  0  0  0  0  0  0  0  0
   -6.3060    3.2869   -1.8712 O   0  0  0  0  0  0  0  0  0  0  0  0
   -7.5432    2.0211   -0.3002 C   0  0  0  0  0  0  0  0  0  0  0  0
   -4.3613    4.4058   -1.0732 H   0  0  0  0  0  0  0  0  0  0  0  0
   -2.6521    4.1806   -1.2318 H   0  0  0  0  0  0  0  0  0  0  0  0
   -3.6885    3.6966   -2.5739 H   0  0  0  0  0  0  0  0  0  0  0  0
   -1.0790    2.7986   -1.6567 H   0  0  0  0  0  0  0  0  0  0  0  0
    0.6949   -1.3402    0.9308 H   0  0  0  0  0  0  0  0  0  0  0  0
    4.9542   -2.0485    1.0804 H   0  0  0  0  0  0  0  0  0  0  0  0
    4.6133    1.3583   -1.5300 H   0  0  0  0  0  0  0  0  0  0  0  0
    2.2226    1.2455   -1.2156 H   0  0  0  0  0  0  0  0  0  0  0  0
    7.2229    0.9059   -1.9509 H   0  0  0  0  0  0  0  0  0  0  0  0
    6.5487    1.8771   -0.6343 H   0  0  0  0  0  0  0  0  0  0  0  0
    8.3839    1.3518    0.8509 H   0  0  0  0  0  0  0  0  0  0  0  0
    9.0028    2.0483   -0.6238 H   0  0  0  0  0  0  0  0  0  0  0  0
    9.9472   -0.0829    0.5536 H   0  0  0  0  0  0  0  0  0  0  0  0
    8.6596   -1.2991   -1.7467 H   0  0  0  0  0  0  0  0  0  0  0  0
    9.3778   -2.0790   -0.3514 H   0  0  0  0  0  0  0  0  0  0  0  0
    7.4383   -1.4696    1.0695 H   0  0  0  0  0  0  0  0  0  0  0  0
    6.9139   -2.3176   -0.3974 H   0  0  0  0  0  0  0  0  0  0  0  0
   -2.8406   -1.5077    1.8361 H   0  0  0  0  0  0  0  0  0  0  0  0
   -5.4832   -0.9818    2.4424 H   0  0  0  0  0  0  0  0  0  0  0  0
   -4.5414   -2.3407    3.0252 H   0  0  0  0  0  0  0  0  0  0  0  0
   -5.8625   -3.8034    1.9420 H   0  0  0  0  0  0  0  0  0  0  0  0
   -6.8082   -2.4964    1.2198 H   0  0  0  0  0  0  0  0  0  0  0  0
   -5.1860   -4.1719   -0.2888 H   0  0  0  0  0  0  0  0  0  0  0  0
   -5.5982   -2.5325   -0.7615 H   0  0  0  0  0  0  0  0  0  0  0  0
   -3.1991   -2.4397   -0.7523 H   0  0  0  0  0  0  0  0  0  0  0  0
   -3.0945   -3.5085    0.6454 H   0  0  0  0  0  0  0  0  0  0  0  0
   -7.3785    1.8633    0.7689 H   0  0  0  0  0  0  0  0  0  0  0  0
   -8.2553    2.8475   -0.4122 H   0  0  0  0  0  0  0  0  0  0  0  0
   -7.9794    1.1341   -0.7697 H   0  0  0  0  0  0  0  0  0  0  0  0
  1  2  1  0
  2  3  2  0
  3  4  1  0
  4  5  2  0
  4  6  1  0
  6  7  1  0
  7  8  2  0
  8  9  1  0
  9 10  2  0
 10 11  1  0
 11 12  2  0
  9 13  1  0
 13 14  1  0
 14 15  2  0
 15 16  1  0
 16 17  2  0
 17 18  1  0
 18 19  2  0
 17 20  1  0
 20 21  1  0
 21 22  1  0
 22 23  1  0
 23 24  1  0
 24 25  1  0
  6 26  1  0
 26 27  1  0
 27 28  1  0
 28 29  1  0
 29 30  1  0
  3 31  1  0
 31 32  2  0
 31 33  1  0
 12  2  1  0
 12  7  1  0
 19 14  1  0
 25 20  1  0
 30 26  1  0
  1 34  1  0
  1 35  1  0
  1 36  1  0
 11 37  1  0
 13 38  1  0
 16 39  1  0
 18 40  1  0
 19 41  1  0
 21 42  1  0
 21 43  1  0
 22 44  1  0
 22 45  1  0
 23 46  1  0
 24 47  1  0
 24 48  1  0
 25 49  1  0
 25 50  1  0
 26 51  1  0
 27 52  1  0
 27 53  1  0
 28 54  1  0
 28 55  1  0
 29 56  1  0
 29 57  1  0
 30 58  1  0
 30 59  1  0
 33 60  1  0
 33 61  1  0
 33 62  1  0
M  END
$$$$
