
     RDKit          3D

 47 49  0  0  0  0  0  0  0  0999 V2000
   -2.3021    3.0415   -2.9881 C   0  0  0  0  0  0  0  0  0  0  0  0
   -3.0207    2.2051   -2.0080 C   0  0  0  0  0  0  0  0  0  0  0  0
   -2.8252    0.9527   -1.4638 C   0  0  0  0  0  0  0  0  0  0  0  0
   -3.9459    0.7847   -0.5912 C   0  0  0  0  0  0  0  0  0  0  0  0
   -4.7324    1.8692   -0.6082 N   0  0  0  0  0  0  0  0  0  0  0  0
   -4.1533    2.7496   -1.4949 O   0  0  0  0  0  0  0  0  0  0  0  0
   -4.2780   -0.3626    0.2426 C   0  0  0  0  0  0  0  0  0  0  0  0
   -4.8856   -1.5019   -0.3127 C   0  0  0  0  0  0  0  0  0  0  0  0
   -5.1984   -2.6062    0.4891 C   0  0  0  0  0  0  0  0  0  0  0  0
   -4.9102   -2.5887    1.8518 C   0  0  0  0  0  0  0  0  0  0  0  0
   -4.3076   -1.4666    2.4157 C   0  0  0  0  0  0  0  0  0  0  0  0
   -3.9928   -0.3588    1.6194 C   0  0  0  0  0  0  0  0  0  0  0  0
   -3.2249    0.9813    2.4054 Cl  0  0  0  0  0  0  0  0  0  0  0  0
   -5.2815   -1.6137   -1.9958 Cl  0  0  0  0  0  0  0  0  0  0  0  0
   -1.7175   -0.0070   -1.7311 C   0  0  0  0  0  0  0  0  0  0  0  0
   -0.9673   -0.3910   -0.4677 C   0  0  0  0  0  0  0  0  0  0  0  0
   -0.9034   -1.5527   -0.0742 O   0  0  0  0  0  0  0  0  0  0  0  0
   -0.3509    0.6569    0.1778 N   0  0  0  0  0  0  0  0  0  0  0  0
    0.4213    0.4672    1.3835 C   0  0  0  0  0  0  0  0  0  0  0  0
    1.8869    0.3990    1.0735 C   0  0  0  0  0  0  0  0  0  0  0  0
    2.4750   -0.7988    0.6756 C   0  0  0  0  0  0  0  0  0  0  0  0
    3.7844   -0.9358    0.3621 N   0  0  0  0  0  0  0  0  0  0  0  0
    4.5437    0.1755    0.4420 C   0  0  0  0  0  0  0  0  0  0  0  0
    4.0569    1.4167    0.8168 C   0  0  0  0  0  0  0  0  0  0  0  0
    2.7060    1.5292    1.1341 C   0  0  0  0  0  0  0  0  0  0  0  0
    5.8863    0.1093    0.1354 O   0  0  0  0  0  0  0  0  0  0  0  0
    6.3088   -1.2117   -0.2326 C   0  0  0  0  0  0  0  0  0  0  0  0
    7.7914   -1.2164   -0.5529 C   0  0  0  0  0  0  0  0  0  0  0  0
    8.0851   -0.3917   -1.5835 F   0  0  0  0  0  0  0  0  0  0  0  0
    8.2001   -2.4590   -0.9047 F   0  0  0  0  0  0  0  0  0  0  0  0
    8.5359   -0.8350    0.5090 F   0  0  0  0  0  0  0  0  0  0  0  0
   -2.1222    4.0409   -2.5796 H   0  0  0  0  0  0  0  0  0  0  0  0
   -2.8913    3.1451   -3.9045 H   0  0  0  0  0  0  0  0  0  0  0  0
   -1.3338    2.6079   -3.2531 H   0  0  0  0  0  0  0  0  0  0  0  0
   -5.6667   -3.4862    0.0533 H   0  0  0  0  0  0  0  0  0  0  0  0
   -5.1514   -3.4490    2.4720 H   0  0  0  0  0  0  0  0  0  0  0  0
   -4.0806   -1.4608    3.4795 H   0  0  0  0  0  0  0  0  0  0  0  0
   -2.1210   -0.9191   -2.1852 H   0  0  0  0  0  0  0  0  0  0  0  0
   -0.9915    0.4051   -2.4402 H   0  0  0  0  0  0  0  0  0  0  0  0
   -0.4316    1.5939   -0.1947 H   0  0  0  0  0  0  0  0  0  0  0  0
    0.2093    1.3151    2.0442 H   0  0  0  0  0  0  0  0  0  0  0  0
    0.0993   -0.4383    1.9105 H   0  0  0  0  0  0  0  0  0  0  0  0
    1.8865   -1.7111    0.5917 H   0  0  0  0  0  0  0  0  0  0  0  0
    4.7158    2.2765    0.8609 H   0  0  0  0  0  0  0  0  0  0  0  0
    2.3032    2.4945    1.4294 H   0  0  0  0  0  0  0  0  0  0  0  0
    6.1306   -1.9078    0.5963 H   0  0  0  0  0  0  0  0  0  0  0  0
    5.7613   -1.5469   -1.1220 H   0  0  0  0  0  0  0  0  0  0  0  0
  1  2  1  0
  2  3  2  0
  3  4  1  0
  4  5  2  0
  5  6  1  0
  4  7  1  0
  7  8  2  0
  8  9  1  0
  9 10  2  0
 10 11  1  0
 11 12  2  0
 12 13  1  0
  8 14  1  0
  3 15  1  0
 15 16  1  0
 16 17  2  0
 16 18  1  0
 18 19  1  0
 19 20  1  0
 20 21  2  0
 21 22  1  0
 22 23  2  0
 23 24  1  0
 24 25  2  0
 23 26  1  0
 26 27  1  0
 27 28  1  0
 28 29  1  0
 28 30  1  0
 28 31  1  0
  6  2  1  0
 12  7  1  0
 25 20  1  0
  1 32  1  0
  1 33  1  0
  1 34  1  0
  9 35  1  0
 10 36  1  0
 11 37  1  0
 15 38  1  0
 15 39  1  0
 18 40  1  0
 19 41  1  0
 19 42  1  0
 21 43  1  0
 24 44  1  0
 25 45  1  0
 27 46  1  0
 27 47  1  0
M  END
$$$$
