
     RDKit          3D

 63 68  0  0  0  0  0  0  0  0999 V2000
   -1.9058    0.4449    1.2138 C   0  0  0  0  0  0  0  0  0  0  0  0
   -3.3546    0.0175    1.4216 C   0  0  0  0  0  0  0  0  0  0  0  0
   -3.5505   -1.3863    1.0489 N   0  0  0  0  0  0  0  0  0  0  0  0
   -2.7023   -1.9165   -0.0178 C   0  0  0  0  0  0  0  0  0  0  0  0
   -2.2401   -0.8325   -0.9804 C   0  0  0  0  0  0  0  0  0  0  0  0
   -1.4893    0.3148   -0.2678 C   0  0  0  0  0  0  0  0  0  0  0  0
   -0.0533    0.2576   -0.5944 N   0  0  0  0  0  0  0  0  0  0  0  0
    0.7152   -0.7891    0.0960 C   0  0  0  0  0  0  0  0  0  0  0  0
    1.8468    0.2571    0.3525 C   0  0  0  0  0  0  0  0  0  0  0  0
    0.7583    1.3214    0.0079 C   0  0  0  0  0  0  0  0  0  0  0  0
    2.5170    0.2868    1.7232 C   0  0  0  0  0  0  0  0  0  0  0  0
    1.5625    0.4015    2.8335 C   0  0  0  0  0  0  0  0  0  0  0  0
    0.7976    0.5053    3.7000 N   0  0  0  0  0  0  0  0  0  0  0  0
    2.9135    0.1499   -0.6889 N   0  0  0  0  0  0  0  0  0  0  0  0
    3.5884    1.2107   -1.2297 C   0  0  0  0  0  0  0  0  0  0  0  0
    4.6086    0.6817   -1.9956 C   0  0  0  0  0  0  0  0  0  0  0  0
    4.5040   -0.7086   -1.7827 C   0  0  0  0  0  0  0  0  0  0  0  0
    3.4987   -1.0347   -0.9662 N   0  0  0  0  0  0  0  0  0  0  0  0
    5.5612    1.4733   -2.7386 C   0  0  0  0  0  0  0  0  0  0  0  0
    6.2397    0.9768   -3.8589 C   0  0  0  0  0  0  0  0  0  0  0  0
    6.2715   -0.2147   -4.6429 C   0  0  0  0  0  0  0  0  0  0  0  0
    7.2031   -0.0390   -5.6465 C   0  0  0  0  0  0  0  0  0  0  0  0
    7.7311    1.2189   -5.5092 N   0  0  0  0  0  0  0  0  0  0  0  0
    7.1512    1.8484   -4.4411 C   0  0  0  0  0  0  0  0  0  0  0  0
    7.4383    3.0992   -4.0531 N   0  0  0  0  0  0  0  0  0  0  0  0
    6.7103    3.4668   -2.9850 C   0  0  0  0  0  0  0  0  0  0  0  0
    5.7980    2.7405   -2.3122 N   0  0  0  0  0  0  0  0  0  0  0  0
   -4.3321   -2.2974    1.7552 C   0  0  0  0  0  0  0  0  0  0  0  0
   -4.2968   -3.5117    1.5658 O   0  0  0  0  0  0  0  0  0  0  0  0
   -5.2342   -1.8197    2.8152 C   0  0  0  0  0  0  0  0  0  0  0  0
   -6.2302   -0.8882    2.5476 C   0  0  0  0  0  0  0  0  0  0  0  0
   -7.0684   -0.4969    3.5812 C   0  0  0  0  0  0  0  0  0  0  0  0
   -6.9497   -1.0095    4.8463 N   0  0  0  0  0  0  0  0  0  0  0  0
   -5.9920   -1.9408    5.0657 C   0  0  0  0  0  0  0  0  0  0  0  0
   -5.1192   -2.3787    4.0888 C   0  0  0  0  0  0  0  0  0  0  0  0
   -8.1343    0.5339    3.2714 C   0  0  0  0  0  0  0  0  0  0  0  0
   -8.9063    0.8756    4.3447 F   0  0  0  0  0  0  0  0  0  0  0  0
   -7.6097    1.7088    2.8130 F   0  0  0  0  0  0  0  0  0  0  0  0
   -9.0097    0.1203    2.3113 F   0  0  0  0  0  0  0  0  0  0  0  0
   -6.3852   -0.3745    1.3189 F   0  0  0  0  0  0  0  0  0  0  0  0
   -1.2841   -0.1739    1.8650 H   0  0  0  0  0  0  0  0  0  0  0  0
   -1.7833    1.4808    1.5479 H   0  0  0  0  0  0  0  0  0  0  0  0
   -4.0255    0.6218    0.8007 H   0  0  0  0  0  0  0  0  0  0  0  0
   -3.6278    0.1763    2.4686 H   0  0  0  0  0  0  0  0  0  0  0  0
   -1.8444   -2.4077    0.4572 H   0  0  0  0  0  0  0  0  0  0  0  0
   -3.2550   -2.6886   -0.5654 H   0  0  0  0  0  0  0  0  0  0  0  0
   -3.1222   -0.4105   -1.4820 H   0  0  0  0  0  0  0  0  0  0  0  0
   -1.6324   -1.2785   -1.7774 H   0  0  0  0  0  0  0  0  0  0  0  0
   -1.8440    1.2317   -0.7601 H   0  0  0  0  0  0  0  0  0  0  0  0
    0.9639   -1.6399   -0.5479 H   0  0  0  0  0  0  0  0  0  0  0  0
    0.2755   -1.2130    1.0032 H   0  0  0  0  0  0  0  0  0  0  0  0
    0.3307    1.8275    0.8794 H   0  0  0  0  0  0  0  0  0  0  0  0
    1.0327    2.1099   -0.7009 H   0  0  0  0  0  0  0  0  0  0  0  0
    3.2125    1.1353    1.7829 H   0  0  0  0  0  0  0  0  0  0  0  0
    3.1159   -0.6216    1.8723 H   0  0  0  0  0  0  0  0  0  0  0  0
    3.3064    2.2360   -1.0386 H   0  0  0  0  0  0  0  0  0  0  0  0
    5.1364   -1.5013   -2.1587 H   0  0  0  0  0  0  0  0  0  0  0  0
    5.6742   -1.1065   -4.5043 H   0  0  0  0  0  0  0  0  0  0  0  0
    7.5270   -0.6939   -6.4465 H   0  0  0  0  0  0  0  0  0  0  0  0
    8.4333    1.6429   -6.1002 H   0  0  0  0  0  0  0  0  0  0  0  0
    6.8792    4.4739   -2.6202 H   0  0  0  0  0  0  0  0  0  0  0  0
   -5.9479   -2.3360    6.0782 H   0  0  0  0  0  0  0  0  0  0  0  0
   -4.3719   -3.1372    4.3063 H   0  0  0  0  0  0  0  0  0  0  0  0
  1  2  1  0
  2  3  1  0
  3  4  1  0
  4  5  1  0
  5  6  1  0
  6  7  1  0
  7  8  1  0
  8  9  1  0
  9 10  1  0
  9 11  1  0
 11 12  1  0
 12 13  3  0
  9 14  1  0
 14 15  1  0
 15 16  2  0
 16 17  1  0
 17 18  2  0
 16 19  1  0
 19 20  2  0
 20 21  1  0
 21 22  2  0
 22 23  1  0
 23 24  1  0
 24 25  2  0
 25 26  1  0
 26 27  2  0
  3 28  1  0
 28 29  2  0
 28 30  1  0
 30 31  2  0
 31 32  1  0
 32 33  2  0
 33 34  1  0
 34 35  2  0
 32 36  1  0
 36 37  1  0
 36 38  1  0
 36 39  1  0
 31 40  1  0
  6  1  1  0
 10  7  1  0
 18 14  1  0
 27 19  1  0
 24 20  1  0
 35 30  1  0
  1 41  1  0
  1 42  1  0
  2 43  1  0
  2 44  1  0
  4 45  1  0
  4 46  1  0
  5 47  1  0
  5 48  1  0
  6 49  1  0
  8 50  1  0
  8 51  1  0
 10 52  1  0
 10 53  1  0
 11 54  1  0
 11 55  1  0
 15 56  1  0
 17 57  1  0
 21 58  1  0
 22 59  1  0
 23 60  1  0
 26 61  1  0
 34 62  1  0
 35 63  1  0
M  END
$$$$
