
     RDKit          3D

 21 20  0  0  0  0  0  0  0  0999 V2000
   -2.6674    1.6308   -0.4696 C   0  0  0  0  0  0  0  0  0  0  0  0
   -2.8426    0.1622    0.5785 S   0  0  0  0  0  4  0  0  0  0  0  0
   -4.1251   -0.5132    0.1911 O   0  0  0  0  0  0  0  0  0  0  0  0
   -1.4847   -0.8100   -0.1521 C   0  0  0  0  0  0  0  0  0  0  0  0
   -0.1168   -0.3049    0.2907 C   0  0  0  0  0  0  0  0  0  0  0  0
    1.0024   -1.1891   -0.2701 C   0  0  0  0  0  0  0  0  0  0  0  0
    2.3960   -0.6655    0.0844 C   0  0  0  0  0  0  0  0  0  0  0  0
    2.6276    0.5979   -0.6311 N   0  0  0  0  0  0  0  0  0  0  0  0
    3.6799    1.0827   -0.4303 C   0  0  0  0  0  0  0  0  0  0  0  0
    5.2854    1.8324   -0.1247 S   0  0  0  0  0  0  0  0  0  0  0  0
   -2.6284    1.3437   -1.5250 H   0  0  0  0  0  0  0  0  0  0  0  0
   -1.7560    2.1717   -0.1931 H   0  0  0  0  0  0  0  0  0  0  0  0
   -3.5348    2.2807   -0.2961 H   0  0  0  0  0  0  0  0  0  0  0  0
   -1.6277   -1.8435    0.1849 H   0  0  0  0  0  0  0  0  0  0  0  0
   -1.5841   -0.7995   -1.2420 H   0  0  0  0  0  0  0  0  0  0  0  0
    0.0269    0.7272   -0.0430 H   0  0  0  0  0  0  0  0  0  0  0  0
   -0.0617   -0.2978    1.3858 H   0  0  0  0  0  0  0  0  0  0  0  0
    0.9053   -1.2600   -1.3605 H   0  0  0  0  0  0  0  0  0  0  0  0
    0.8931   -2.2042    0.1308 H   0  0  0  0  0  0  0  0  0  0  0  0
    2.4742   -0.5232    1.1693 H   0  0  0  0  0  0  0  0  0  0  0  0
    3.1384   -1.4185   -0.2156 H   0  0  0  0  0  0  0  0  0  0  0  0
  1  2  1  0
  2  3  2  0
  2  4  1  0
  4  5  1  0
  5  6  1  0
  6  7  1  0
  7  8  1  0
  8  9  2  0
  9 10  2  0
  1 11  1  0
  1 12  1  0
  1 13  1  0
  4 14  1  0
  4 15  1  0
  5 16  1  0
  5 17  1  0
  6 18  1  0
  6 19  1  0
  7 20  1  0
  7 21  1  0
M  END
$$$$
