
     RDKit          3D

 75 79  0  0  0  0  0  0  0  0999 V2000
    2.3815    1.8176   -1.8644 C   0  0  0  0  0  0  0  0  0  0  0  0
    2.5210    0.9563   -0.6081 C   0  0  2  0  0  0  0  0  0  0  0  0
    3.8410    0.2147   -0.6996 C   0  0  0  0  0  0  0  0  0  0  0  0
    4.8569    0.3825    0.1629 C   0  0  0  0  0  0  0  0  0  0  0  0
    6.1721   -0.3624    0.0721 C   0  0  2  0  0  0  0  0  0  0  0  0
    6.3024   -1.2478    1.3169 C   0  0  0  0  0  0  0  0  0  0  0  0
    7.3677    0.6179   -0.0926 C   0  0  0  0  0  0  0  0  0  0  0  0
    8.7146   -0.1138   -0.1330 C   0  0  0  0  0  0  0  0  0  0  0  0
    7.2322    1.4690   -1.3638 C   0  0  0  0  0  0  0  0  0  0  0  0
    1.3555   -0.0491   -0.4178 C   0  0  1  0  0  0  0  0  0  0  0  0
    1.5381   -0.9120    0.8686 C   0  0  0  0  0  0  0  0  0  0  0  0
    0.1347   -1.2926    1.3622 C   0  0  0  0  0  0  0  0  0  0  0  0
   -0.7845   -0.8041    0.2505 C   0  0  2  0  0  0  0  0  0  0  0  0
   -0.1068    0.4853   -0.2796 C   0  0  2  0  0  0  0  0  0  0  0  0
   -0.8109    0.8457   -1.6032 C   0  0  0  0  0  0  0  0  0  0  0  0
   -2.3326    1.0086   -1.4273 C   0  0  0  0  0  0  0  0  0  0  0  0
   -3.0069   -0.2262   -0.7941 C   0  0  1  0  0  0  0  0  0  0  0  0
   -2.2930   -0.7240    0.5085 C   0  0  2  0  0  0  0  0  0  0  0  0
   -2.7474    0.0179    1.7419 C   0  0  0  0  0  0  0  0  0  0  0  0
   -4.0698   -0.0503    1.9532 C   0  0  0  0  0  0  0  0  0  0  0  0
   -4.8186   -0.7926    0.8683 C   0  0  2  0  0  0  0  0  0  0  0  0
   -4.5639   -0.1052   -0.5187 C   0  0  2  0  0  0  0  0  0  0  0  0
   -5.3428   -0.8760   -1.6218 C   0  0  0  0  0  0  0  0  0  0  0  0
   -6.8258   -1.0515   -1.2949 C   0  0  0  0  0  0  0  0  0  0  0  0
   -7.0422   -1.7012    0.0705 C   0  0  1  0  0  0  0  0  0  0  0  0
   -6.3051   -0.9642    1.1905 C   0  0  0  0  0  0  0  0  0  0  0  0
   -8.4408   -1.7003    0.3492 O   0  0  0  0  0  0  0  0  0  0  0  0
   -5.0564    1.3653   -0.5141 C   0  0  0  0  0  0  0  0  0  0  0  0
   -4.2508   -2.1297    0.7874 O   0  0  0  0  0  0  0  0  0  0  0  0
   -2.7591   -2.0851    0.7260 O   0  0  0  0  0  0  0  0  0  0  0  0
   -0.1568    1.6879    0.6885 C   0  0  0  0  0  0  0  0  0  0  0  0
    2.1590    1.2088   -2.7476 H   0  0  0  0  0  0  0  0  0  0  0  0
    1.5893    2.5612   -1.7489 H   0  0  0  0  0  0  0  0  0  0  0  0
    3.3033    2.3762   -2.0670 H   0  0  0  0  0  0  0  0  0  0  0  0
    2.5582    1.6311    0.2567 H   0  0  0  0  0  0  0  0  0  0  0  0
    3.9476   -0.4910   -1.5222 H   0  0  0  0  0  0  0  0  0  0  0  0
    4.7521    1.0868    0.9865 H   0  0  0  0  0  0  0  0  0  0  0  0
    6.1505   -1.0280   -0.8018 H   0  0  0  0  0  0  0  0  0  0  0  0
    6.4570   -0.6477    2.2207 H   0  0  0  0  0  0  0  0  0  0  0  0
    7.1412   -1.9445    1.2226 H   0  0  0  0  0  0  0  0  0  0  0  0
    5.4013   -1.8541    1.4662 H   0  0  0  0  0  0  0  0  0  0  0  0
    7.3886    1.3035    0.7654 H   0  0  0  0  0  0  0  0  0  0  0  0
    8.9333   -0.6014    0.8218 H   0  0  0  0  0  0  0  0  0  0  0  0
    8.7283   -0.8752   -0.9202 H   0  0  0  0  0  0  0  0  0  0  0  0
    9.5338    0.5873   -0.3271 H   0  0  0  0  0  0  0  0  0  0  0  0
    8.0981    2.1294   -1.4833 H   0  0  0  0  0  0  0  0  0  0  0  0
    7.1638    0.8379   -2.2564 H   0  0  0  0  0  0  0  0  0  0  0  0
    6.3446    2.1082   -1.3280 H   0  0  0  0  0  0  0  0  0  0  0  0
    1.3764   -0.7425   -1.2736 H   0  0  0  0  0  0  0  0  0  0  0  0
    2.0641   -0.3622    1.6577 H   0  0  0  0  0  0  0  0  0  0  0  0
    2.1264   -1.8095    0.6460 H   0  0  0  0  0  0  0  0  0  0  0  0
   -0.0706   -0.8019    2.3188 H   0  0  0  0  0  0  0  0  0  0  0  0
    0.0463   -2.3724    1.5206 H   0  0  0  0  0  0  0  0  0  0  0  0
   -0.6808   -1.5715   -0.5384 H   0  0  0  0  0  0  0  0  0  0  0  0
   -0.6254    0.0651   -2.3522 H   0  0  0  0  0  0  0  0  0  0  0  0
   -0.4146    1.7751   -2.0219 H   0  0  0  0  0  0  0  0  0  0  0  0
   -2.5176    1.9061   -0.8302 H   0  0  0  0  0  0  0  0  0  0  0  0
   -2.7764    1.1945   -2.4131 H   0  0  0  0  0  0  0  0  0  0  0  0
   -2.8755   -1.0356   -1.5293 H   0  0  0  0  0  0  0  0  0  0  0  0
   -2.0702    0.4952    2.4361 H   0  0  0  0  0  0  0  0  0  0  0  0
   -4.5623    0.3913    2.8092 H   0  0  0  0  0  0  0  0  0  0  0  0
   -5.2404   -0.3612   -2.5852 H   0  0  0  0  0  0  0  0  0  0  0  0
   -4.9095   -1.8750   -1.7623 H   0  0  0  0  0  0  0  0  0  0  0  0
   -7.3487   -0.0886   -1.3405 H   0  0  0  0  0  0  0  0  0  0  0  0
   -7.3014   -1.6678   -2.0683 H   0  0  0  0  0  0  0  0  0  0  0  0
   -6.7164   -2.7473    0.0269 H   0  0  0  0  0  0  0  0  0  0  0  0
   -6.7883    0.0020    1.3832 H   0  0  0  0  0  0  0  0  0  0  0  0
   -6.4293   -1.5424    2.1165 H   0  0  0  0  0  0  0  0  0  0  0  0
   -8.5754   -2.2199    1.1607 H   0  0  0  0  0  0  0  0  0  0  0  0
   -6.1123    1.4492   -0.2414 H   0  0  0  0  0  0  0  0  0  0  0  0
   -4.5017    1.9857    0.1970 H   0  0  0  0  0  0  0  0  0  0  0  0
   -4.9516    1.8203   -1.5054 H   0  0  0  0  0  0  0  0  0  0  0  0
    0.3170    1.4695    1.6506 H   0  0  0  0  0  0  0  0  0  0  0  0
   -1.1751    2.0206    0.8989 H   0  0  0  0  0  0  0  0  0  0  0  0
    0.3601    2.5545    0.2634 H   0  0  0  0  0  0  0  0  0  0  0  0
  1  2  1  0
  2  3  1  0
  3  4  2  0
  4  5  1  0
  5  6  1  0
  5  7  1  0
  7  8  1  0
  7  9  1  0
  2 10  1  0
 10 11  1  0
 11 12  1  0
 12 13  1  0
 13 14  1  0
 14 15  1  0
 15 16  1  0
 16 17  1  0
 17 18  1  0
 18 19  1  0
 19 20  2  0
 20 21  1  0
 21 22  1  0
 22 23  1  0
 23 24  1  0
 24 25  1  0
 25 26  1  0
 25 27  1  0
 22 28  1  1
 21 29  1  0
 29 30  1  0
 14 31  1  1
 14 10  1  0
 18 13  1  0
 22 17  1  0
 18 30  1  1
 21 26  1  1
  1 32  1  0
  1 33  1  0
  1 34  1  0
  2 35  1  1
  3 36  1  0
  4 37  1  0
  5 38  1  6
  6 39  1  0
  6 40  1  0
  6 41  1  0
  7 42  1  0
  8 43  1  0
  8 44  1  0
  8 45  1  0
  9 46  1  0
  9 47  1  0
  9 48  1  0
 10 49  1  6
 11 50  1  0
 11 51  1  0
 12 52  1  0
 12 53  1  0
 13 54  1  6
 15 55  1  0
 15 56  1  0
 16 57  1  0
 16 58  1  0
 17 59  1  6
 19 60  1  0
 20 61  1  0
 23 62  1  0
 23 63  1  0
 24 64  1  0
 24 65  1  0
 25 66  1  6
 26 67  1  0
 26 68  1  0
 27 69  1  0
 28 70  1  0
 28 71  1  0
 28 72  1  0
 31 73  1  0
 31 74  1  0
 31 75  1  0
M  END
$$$$
