
     RDKit          3D

 72 73  0  0  0  0  0  0  0  0999 V2000
   -3.3179    3.9427    2.6537 C   0  0  0  0  0  0  0  0  0  0  0  0
   -3.5619    2.7263    1.8320 C   0  0  0  0  0  0  0  0  0  0  0  0
   -2.4959    2.1313    1.2103 C   0  0  0  0  0  0  0  0  0  0  0  0
   -2.8322    0.7482    0.6211 C   0  0  0  0  0  0  0  0  0  0  0  0
   -3.6270   -0.0355    1.2522 O   0  0  0  0  0  0  0  0  0  0  0  0
   -2.6527    0.4769   -0.7531 N   0  0  0  0  0  0  0  0  0  0  0  0
   -3.2367   -0.7260   -1.3847 C   0  0  2  0  0  0  0  0  0  0  0  0
   -2.4094   -1.9973   -1.0747 C   0  0  0  0  0  0  0  0  0  0  0  0
   -2.6382   -3.0364   -1.6822 O   0  0  0  0  0  0  0  0  0  0  0  0
   -1.3926   -1.8660   -0.1809 O   0  0  0  0  0  0  0  0  0  0  0  0
   -0.5687   -3.0342    0.2169 C   0  0  1  0  0  0  0  0  0  0  0  0
    0.6886   -3.2919   -0.6022 C   0  0  0  0  0  0  0  0  0  0  0  0
    1.2776   -2.0422   -1.1897 C   0  0  0  0  0  0  0  0  0  0  0  0
    0.5184   -1.4482   -1.9481 O   0  0  0  0  0  0  0  0  0  0  0  0
    2.5452   -1.5093   -0.9215 N   0  0  0  0  0  0  0  0  0  0  0  0
    2.8266   -0.2069   -1.4948 C   0  0  1  0  0  0  0  0  0  0  0  0
    2.1009    0.8708   -0.6787 C   0  0  0  0  0  0  0  0  0  0  0  0
    1.8311    1.8295   -1.3901 O   0  0  0  0  0  0  0  0  0  0  0  0
    1.9145    0.9478    0.6956 N   0  0  0  0  0  0  0  0  0  0  0  0
    1.2943    2.2347    1.1431 C   0  0  2  0  0  0  0  0  0  0  0  0
    1.5994    2.4910    2.5639 C   0  0  0  0  0  0  0  0  0  0  0  0
    0.3979    1.8893    3.7815 S   0  0  0  0  0  0  0  0  0  0  0  0
   -0.1492   -0.0965    3.4039 S   0  0  0  0  0  0  0  0  0  0  0  0
    1.1326   -1.1640    4.2501 C   0  0  0  0  0  0  0  0  0  0  0  0
    0.7080   -2.6041    4.0185 C   0  0  0  0  0  0  0  0  0  0  0  0
    0.7451   -2.8128    2.5514 C   0  0  0  0  0  0  0  0  0  0  0  0
   -0.3692   -2.8877    1.6847 C   0  0  0  0  0  0  0  0  0  0  0  0
   -0.1709    1.9135    0.9512 C   0  0  0  0  0  0  0  0  0  0  0  0
   -0.4111    0.8456    0.3903 O   0  0  0  0  0  0  0  0  0  0  0  0
   -1.2319    2.7332    1.1543 N   0  0  0  0  0  0  0  0  0  0  0  0
    4.3269    0.1682   -1.5138 C   0  0  0  0  0  0  0  0  0  0  0  0
    4.5189    1.6561   -1.7673 C   0  0  0  0  0  0  0  0  0  0  0  0
    5.0980   -0.5800   -2.5573 C   0  0  0  0  0  0  0  0  0  0  0  0
   -3.4950   -0.6176   -2.8944 C   0  0  0  0  0  0  0  0  0  0  0  0
   -2.2139   -0.5926   -3.7654 C   0  0  0  0  0  0  0  0  0  0  0  0
   -4.4482    0.4957   -3.2515 C   0  0  0  0  0  0  0  0  0  0  0  0
   -2.5777    3.6780    3.4638 H   0  0  0  0  0  0  0  0  0  0  0  0
   -4.2292    4.2691    3.1767 H   0  0  0  0  0  0  0  0  0  0  0  0
   -2.9297    4.8138    2.0691 H   0  0  0  0  0  0  0  0  0  0  0  0
   -4.5448    2.2212    1.8988 H   0  0  0  0  0  0  0  0  0  0  0  0
   -2.0106    0.9539   -1.4924 H   0  0  0  0  0  0  0  0  0  0  0  0
   -4.2317   -0.9085   -0.8835 H   0  0  0  0  0  0  0  0  0  0  0  0
   -1.2145   -3.9708    0.0508 H   0  0  0  0  0  0  0  0  0  0  0  0
    0.3840   -3.8943   -1.4935 H   0  0  0  0  0  0  0  0  0  0  0  0
    1.3187   -4.0178   -0.0458 H   0  0  0  0  0  0  0  0  0  0  0  0
    3.4044   -2.0727   -0.7560 H   0  0  0  0  0  0  0  0  0  0  0  0
    2.4213   -0.1139   -2.5115 H   0  0  0  0  0  0  0  0  0  0  0  0
    1.5840    0.2046    1.3212 H   0  0  0  0  0  0  0  0  0  0  0  0
    1.6621    3.0428    0.4635 H   0  0  0  0  0  0  0  0  0  0  0  0
    2.5678    2.0600    2.7784 H   0  0  0  0  0  0  0  0  0  0  0  0
    1.6662    3.5657    2.6807 H   0  0  0  0  0  0  0  0  0  0  0  0
    2.0989   -1.0062    3.7153 H   0  0  0  0  0  0  0  0  0  0  0  0
    1.1574   -0.9905    5.3378 H   0  0  0  0  0  0  0  0  0  0  0  0
    1.5344   -3.2380    4.4263 H   0  0  0  0  0  0  0  0  0  0  0  0
   -0.2332   -2.8373    4.5231 H   0  0  0  0  0  0  0  0  0  0  0  0
    1.7768   -2.9422    2.2045 H   0  0  0  0  0  0  0  0  0  0  0  0
   -1.3710   -2.8369    2.1122 H   0  0  0  0  0  0  0  0  0  0  0  0
   -1.2398    3.6782    1.4652 H   0  0  0  0  0  0  0  0  0  0  0  0
    4.7548   -0.0466   -0.5116 H   0  0  0  0  0  0  0  0  0  0  0  0
    5.5881    1.7943   -2.0765 H   0  0  0  0  0  0  0  0  0  0  0  0
    4.3830    2.3184   -0.8668 H   0  0  0  0  0  0  0  0  0  0  0  0
    3.9092    2.0644   -2.6011 H   0  0  0  0  0  0  0  0  0  0  0  0
    6.1616   -0.3792   -2.4148 H   0  0  0  0  0  0  0  0  0  0  0  0
    4.8364   -0.2610   -3.5761 H   0  0  0  0  0  0  0  0  0  0  0  0
    4.9264   -1.6548   -2.4824 H   0  0  0  0  0  0  0  0  0  0  0  0
   -4.0066   -1.5694   -3.1551 H   0  0  0  0  0  0  0  0  0  0  0  0
   -1.8757   -1.6041   -4.0128 H   0  0  0  0  0  0  0  0  0  0  0  0
   -1.3808   -0.0654   -3.2930 H   0  0  0  0  0  0  0  0  0  0  0  0
   -2.4912   -0.1127   -4.7289 H   0  0  0  0  0  0  0  0  0  0  0  0
   -3.9041    1.3966   -3.5497 H   0  0  0  0  0  0  0  0  0  0  0  0
   -5.1398    0.7003   -2.4411 H   0  0  0  0  0  0  0  0  0  0  0  0
   -5.0562    0.2093   -4.1191 H   0  0  0  0  0  0  0  0  0  0  0  0
  1  2  1  0
  2  3  2  0
  3  4  1  0
  4  5  2  0
  4  6  1  0
  6  7  1  0
  7  8  1  0
  8  9  2  0
  8 10  1  0
 10 11  1  0
 11 12  1  0
 12 13  1  0
 13 14  2  0
 13 15  1  0
 15 16  1  0
 16 17  1  0
 17 18  2  0
 17 19  1  0
 19 20  1  0
 20 21  1  0
 21 22  1  0
 22 23  1  0
 23 24  1  0
 24 25  1  0
 25 26  1  0
 26 27  2  0
 20 28  1  0
 28 29  2  0
 28 30  1  0
 16 31  1  0
 31 32  1  0
 31 33  1  0
  7 34  1  0
 34 35  1  0
 34 36  1  0
 30  3  1  0
 27 11  1  0
  1 37  1  0
  1 38  1  0
  1 39  1  0
  2 40  1  0
  6 41  1  0
  7 42  1  1
 11 43  1  1
 12 44  1  0
 12 45  1  0
 15 46  1  0
 16 47  1  6
 19 48  1  0
 20 49  1  6
 21 50  1  0
 21 51  1  0
 24 52  1  0
 24 53  1  0
 25 54  1  0
 25 55  1  0
 26 56  1  0
 27 57  1  0
 30 58  1  0
 31 59  1  0
 32 60  1  0
 32 61  1  0
 32 62  1  0
 33 63  1  0
 33 64  1  0
 33 65  1  0
 34 66  1  0
 35 67  1  0
 35 68  1  0
 35 69  1  0
 36 70  1  0
 36 71  1  0
 36 72  1  0
M  END
$$$$
