
     RDKit          3D

 29 31  0  0  0  0  0  0  0  0999 V2000
   -2.2677    0.4248    0.8381 C   0  0  0  0  0  0  0  0  0  0  0  0
   -3.7503    0.2335    0.4892 C   0  0  0  0  0  0  0  0  0  0  0  0
   -3.8905   -0.9087   -0.4932 C   0  0  0  0  0  0  0  0  0  0  0  0
   -4.8238   -1.7132   -0.4127 O   0  0  0  0  0  0  0  0  0  0  0  0
   -2.9443   -0.9702   -1.4826 N   0  0  0  0  0  0  0  0  0  0  0  0
   -1.8191   -0.1736   -1.6189 C   0  0  0  0  0  0  0  0  0  0  0  0
   -1.2153   -0.1465   -2.6962 O   0  0  0  0  0  0  0  0  0  0  0  0
   -1.4263    0.6825   -0.4095 C   0  0  0  0  0  0  0  0  0  0  0  0
    0.0050    0.4507   -0.1896 N   0  0  0  0  0  0  0  0  0  0  0  0
    0.5581   -0.7323    0.1632 C   0  0  0  0  0  0  0  0  0  0  0  0
   -0.0074   -1.7923    0.3925 O   0  0  0  0  0  0  0  0  0  0  0  0
    1.9988   -0.5470    0.2519 C   0  0  0  0  0  0  0  0  0  0  0  0
    2.9997   -1.4204    0.6229 C   0  0  0  0  0  0  0  0  0  0  0  0
    4.3139   -0.9338    0.6252 C   0  0  0  0  0  0  0  0  0  0  0  0
    4.5848    0.4036    0.2834 C   0  0  0  0  0  0  0  0  0  0  0  0
    3.5471    1.2740   -0.0774 C   0  0  0  0  0  0  0  0  0  0  0  0
    2.2539    0.7648   -0.0899 C   0  0  0  0  0  0  0  0  0  0  0  0
    0.9684    1.3925   -0.3859 C   0  0  0  0  0  0  0  0  0  0  0  0
    0.8464    2.5737   -0.6977 O   0  0  0  0  0  0  0  0  0  0  0  0
   -2.1607    1.2851    1.5287 H   0  0  0  0  0  0  0  0  0  0  0  0
   -1.8798   -0.4602    1.3979 H   0  0  0  0  0  0  0  0  0  0  0  0
   -4.1596    1.1425    0.0106 H   0  0  0  0  0  0  0  0  0  0  0  0
   -4.3130    0.0135    1.4063 H   0  0  0  0  0  0  0  0  0  0  0  0
   -3.1384   -1.6189   -2.2286 H   0  0  0  0  0  0  0  0  0  0  0  0
   -1.5675    1.7285   -0.7334 H   0  0  0  0  0  0  0  0  0  0  0  0
    2.7872   -2.4413    0.8979 H   0  0  0  0  0  0  0  0  0  0  0  0
    5.1347   -1.5808    0.9111 H   0  0  0  0  0  0  0  0  0  0  0  0
    5.6151    0.7613    0.2951 H   0  0  0  0  0  0  0  0  0  0  0  0
    3.7506    2.3083   -0.3403 H   0  0  0  0  0  0  0  0  0  0  0  0
  1  2  1  0
  2  3  1  0
  3  4  2  0
  3  5  1  0
  5  6  1  0
  6  7  2  0
  6  8  1  0
  8  9  1  0
  9 10  1  0
 10 11  2  0
 10 12  1  0
 12 13  2  0
 13 14  1  0
 14 15  2  0
 15 16  1  0
 16 17  2  0
 17 18  1  0
 18 19  2  0
  8  1  1  0
 18  9  1  0
 17 12  1  0
  1 20  1  0
  1 21  1  0
  2 22  1  0
  2 23  1  0
  5 24  1  0
  8 25  1  0
 13 26  1  0
 14 27  1  0
 15 28  1  0
 16 29  1  0
M  END
$$$$
