
     RDKit          3D

 58 62  0  0  0  0  0  0  0  0999 V2000
    8.7090    2.2087    0.8406 C   0  0  0  0  0  0  0  0  0  0  0  0
    7.6446    3.2711    0.7981 C   0  0  0  0  0  0  0  0  0  0  0  0
    8.0681    2.5772   -0.4789 C   0  0  0  0  0  0  0  0  0  0  0  0
    7.1487    1.6642   -1.2364 C   0  0  0  0  0  0  0  0  0  0  0  0
    7.1770    1.7300   -2.4559 O   0  0  0  0  0  0  0  0  0  0  0  0
    6.3732    0.8353   -0.4577 N   0  0  0  0  0  0  0  0  0  0  0  0
    5.4219   -0.0784   -0.9295 C   0  0  0  0  0  0  0  0  0  0  0  0
    5.1455   -0.1788   -2.2411 N   0  0  0  0  0  0  0  0  0  0  0  0
    4.2105   -1.0699   -2.6344 C   0  0  0  0  0  0  0  0  0  0  0  0
    3.5094   -1.8799   -1.7655 C   0  0  0  0  0  0  0  0  0  0  0  0
    3.7955   -1.7517   -0.4148 C   0  0  0  0  0  0  0  0  0  0  0  0
    4.7748   -0.8626    0.0166 C   0  0  0  0  0  0  0  0  0  0  0  0
    3.1703   -2.5443    0.5200 O   0  0  0  0  0  0  0  0  0  0  0  0
    1.8419   -2.2542    0.7271 C   0  0  0  0  0  0  0  0  0  0  0  0
    1.4152   -1.0290    1.2396 C   0  0  0  0  0  0  0  0  0  0  0  0
    0.0622   -0.7795    1.4529 C   0  0  0  0  0  0  0  0  0  0  0  0
   -0.8948   -1.7610    1.1614 C   0  0  0  0  0  0  0  0  0  0  0  0
   -0.4479   -3.0087    0.7030 C   0  0  0  0  0  0  0  0  0  0  0  0
    0.9093   -3.2581    0.4868 C   0  0  0  0  0  0  0  0  0  0  0  0
   -1.2847   -4.0356    0.5160 F   0  0  0  0  0  0  0  0  0  0  0  0
   -2.2405   -1.3998    1.3864 N   0  0  0  0  0  0  0  0  0  0  0  0
   -3.3756   -2.0251    0.9171 C   0  0  0  0  0  0  0  0  0  0  0  0
   -3.4632   -2.9905    0.1792 O   0  0  0  0  0  0  0  0  0  0  0  0
   -4.6354   -1.3466    1.3754 C   0  0  0  0  0  0  0  0  0  0  0  0
   -5.0446   -1.5796    2.8316 C   0  0  0  0  0  0  0  0  0  0  0  0
   -5.8491   -2.2015    1.7364 C   0  0  0  0  0  0  0  0  0  0  0  0
   -4.8691    0.0138    0.7960 C   0  0  0  0  0  0  0  0  0  0  0  0
   -4.3922    0.9773    1.3791 O   0  0  0  0  0  0  0  0  0  0  0  0
   -5.5629   -0.0082   -0.3960 N   0  0  0  0  0  0  0  0  0  0  0  0
   -5.9095    1.0937   -1.1998 C   0  0  0  0  0  0  0  0  0  0  0  0
   -6.4828    0.8196   -2.4478 C   0  0  0  0  0  0  0  0  0  0  0  0
   -6.8396    1.8601   -3.3101 C   0  0  0  0  0  0  0  0  0  0  0  0
   -6.6294    3.1752   -2.9202 C   0  0  0  0  0  0  0  0  0  0  0  0
   -6.0745    3.4657   -1.6836 C   0  0  0  0  0  0  0  0  0  0  0  0
   -5.7123    2.4248   -0.8216 C   0  0  0  0  0  0  0  0  0  0  0  0
   -6.9711    4.1741   -3.7436 F   0  0  0  0  0  0  0  0  0  0  0  0
    2.2980   -0.0665    1.5479 F   0  0  0  0  0  0  0  0  0  0  0  0
    8.4846    1.2559    1.3049 H   0  0  0  0  0  0  0  0  0  0  0  0
    9.7333    2.5290    1.0006 H   0  0  0  0  0  0  0  0  0  0  0  0
    7.9496    4.3047    0.9269 H   0  0  0  0  0  0  0  0  0  0  0  0
    6.6709    3.0571    1.2222 H   0  0  0  0  0  0  0  0  0  0  0  0
    8.6937    3.1645   -1.1500 H   0  0  0  0  0  0  0  0  0  0  0  0
    6.4904    0.8870    0.5416 H   0  0  0  0  0  0  0  0  0  0  0  0
    4.0427   -1.1144   -3.7052 H   0  0  0  0  0  0  0  0  0  0  0  0
    2.7772   -2.5874   -2.1333 H   0  0  0  0  0  0  0  0  0  0  0  0
    4.9998   -0.7842    1.0736 H   0  0  0  0  0  0  0  0  0  0  0  0
   -0.2231    0.1988    1.8316 H   0  0  0  0  0  0  0  0  0  0  0  0
    1.2210   -4.2371    0.1391 H   0  0  0  0  0  0  0  0  0  0  0  0
   -2.3994   -0.5027    1.8400 H   0  0  0  0  0  0  0  0  0  0  0  0
   -4.4298   -2.2322    3.4421 H   0  0  0  0  0  0  0  0  0  0  0  0
   -5.4786   -0.7508    3.3789 H   0  0  0  0  0  0  0  0  0  0  0  0
   -6.8429   -1.8050    1.5659 H   0  0  0  0  0  0  0  0  0  0  0  0
   -5.7762   -3.2738    1.5958 H   0  0  0  0  0  0  0  0  0  0  0  0
   -5.7771   -0.9270   -0.7721 H   0  0  0  0  0  0  0  0  0  0  0  0
   -6.6502   -0.2039   -2.7715 H   0  0  0  0  0  0  0  0  0  0  0  0
   -7.2723    1.6508   -4.2790 H   0  0  0  0  0  0  0  0  0  0  0  0
   -5.9219    4.5001   -1.3925 H   0  0  0  0  0  0  0  0  0  0  0  0
   -5.2872    2.6897    0.1391 H   0  0  0  0  0  0  0  0  0  0  0  0
  1  2  1  0
  2  3  1  0
  3  4  1  0
  4  5  2  0
  4  6  1  0
  6  7  1  0
  7  8  2  0
  8  9  1  0
  9 10  2  0
 10 11  1  0
 11 12  2  0
 11 13  1  0
 13 14  1  0
 14 15  2  0
 15 16  1  0
 16 17  2  0
 17 18  1  0
 18 19  2  0
 18 20  1  0
 17 21  1  0
 21 22  1  0
 22 23  2  0
 22 24  1  0
 24 25  1  0
 25 26  1  0
 24 27  1  0
 27 28  2  0
 27 29  1  0
 29 30  1  0
 30 31  2  0
 31 32  1  0
 32 33  2  0
 33 34  1  0
 34 35  2  0
 33 36  1  0
 15 37  1  0
  3  1  1  0
 12  7  1  0
 19 14  1  0
 26 24  1  0
 35 30  1  0
  1 38  1  0
  1 39  1  0
  2 40  1  0
  2 41  1  0
  3 42  1  0
  6 43  1  0
  9 44  1  0
 10 45  1  0
 12 46  1  0
 16 47  1  0
 19 48  1  0
 21 49  1  0
 25 50  1  0
 25 51  1  0
 26 52  1  0
 26 53  1  0
 29 54  1  0
 31 55  1  0
 32 56  1  0
 34 57  1  0
 35 58  1  0
M  END
$$$$
