
     RDKit          3D

 19 18  0  0  0  0  0  0  0  0999 V2000
    1.4851   -0.5284   -0.3802 C   0  0  0  0  0  0  0  0  0  0  0  0
    2.8795   -0.5936    0.1789 C   0  0  0  0  0  0  0  0  0  0  0  0
    3.8745   -0.3005   -0.4781 O   0  0  0  0  0  0  0  0  0  0  0  0
    0.6240    0.3386    0.5248 C   0  0  1  0  0  0  0  0  0  0  0  0
   -0.6923    0.7815   -0.1324 C   0  0  1  0  0  0  0  0  0  0  0  0
   -1.5922   -0.3748   -0.5827 C   0  0  0  0  0  0  0  0  0  0  0  0
   -2.8030    0.1856   -1.1015 O   0  0  0  0  0  0  0  0  0  0  0  0
   -1.4240    1.5508    0.8425 O   0  0  0  0  0  0  0  0  0  0  0  0
    0.3216   -0.3995    1.7175 O   0  0  0  0  0  0  0  0  0  0  0  0
    1.5410   -0.1094   -1.3904 H   0  0  0  0  0  0  0  0  0  0  0  0
    1.1108   -1.5559   -0.4353 H   0  0  0  0  0  0  0  0  0  0  0  0
    2.9712   -0.9638    1.2149 H   0  0  0  0  0  0  0  0  0  0  0  0
    1.1769    1.2288    0.8498 H   0  0  0  0  0  0  0  0  0  0  0  0
   -0.4910    1.4492   -0.9779 H   0  0  0  0  0  0  0  0  0  0  0  0
   -1.1215   -0.9718   -1.3686 H   0  0  0  0  0  0  0  0  0  0  0  0
   -1.8652   -1.0185    0.2593 H   0  0  0  0  0  0  0  0  0  0  0  0
   -3.3648   -0.5627   -1.3731 H   0  0  0  0  0  0  0  0  0  0  0  0
   -2.3059    1.6831    0.4353 H   0  0  0  0  0  0  0  0  0  0  0  0
   -0.3249    0.1612    2.1975 H   0  0  0  0  0  0  0  0  0  0  0  0
  1  2  1  0
  2  3  2  0
  1  4  1  0
  4  5  1  0
  5  6  1  0
  6  7  1  0
  5  8  1  0
  4  9  1  0
  1 10  1  0
  1 11  1  0
  2 12  1  0
  4 13  1  1
  5 14  1  6
  6 15  1  0
  6 16  1  0
  7 17  1  0
  8 18  1  0
  9 19  1  0
M  END
$$$$
