
     RDKit          3D

 56 57  0  0  0  0  0  0  0  0999 V2000
   -0.8106   -4.3500    1.8224 C   0  0  0  0  0  0  0  0  0  0  0  0
    0.2082   -3.2323    1.9607 C   0  0  0  0  0  0  0  0  0  0  0  0
   -0.4734   -1.9899    2.1920 O   0  0  0  0  0  0  0  0  0  0  0  0
   -0.7604   -1.2597    1.0742 C   0  0  0  0  0  0  0  0  0  0  0  0
   -0.5353   -1.6129   -0.0806 O   0  0  0  0  0  0  0  0  0  0  0  0
   -1.4070    0.0806    1.4735 C   0  0  2  0  0  0  0  0  0  0  0  0
   -2.3440    0.6172    0.3753 C   0  0  0  0  0  0  0  0  0  0  0  0
   -3.5830   -0.2680    0.2032 C   0  0  0  0  0  0  0  0  0  0  0  0
   -4.4600    0.2123   -0.9151 C   0  0  0  0  0  0  0  0  0  0  0  0
   -4.2870   -0.2961   -2.2053 C   0  0  0  0  0  0  0  0  0  0  0  0
   -5.0910    0.1557   -3.2560 C   0  0  0  0  0  0  0  0  0  0  0  0
   -6.0736    1.1222   -3.0266 C   0  0  0  0  0  0  0  0  0  0  0  0
   -6.2426    1.6413   -1.7472 C   0  0  0  0  0  0  0  0  0  0  0  0
   -5.4376    1.1906   -0.6946 C   0  0  0  0  0  0  0  0  0  0  0  0
   -0.3988    1.0841    1.9029 N   0  0  0  0  0  0  0  0  0  0  0  0
    0.6436    1.4135    0.8888 C   0  0  1  0  0  0  0  0  0  0  0  0
    1.0281    2.8797    1.1102 C   0  0  0  0  0  0  0  0  0  0  0  0
    1.8933    0.5219    1.1150 C   0  0  0  0  0  0  0  0  0  0  0  0
    1.9677   -0.2289    2.0992 O   0  0  0  0  0  0  0  0  0  0  0  0
    2.9336    0.5829    0.1998 N   0  0  0  0  0  0  0  0  0  0  0  0
    4.1408   -0.1871    0.4517 C   0  0  1  0  0  0  0  0  0  0  0  0
    4.9336   -0.1316   -0.8442 C   0  0  0  0  0  0  0  0  0  0  0  0
    4.0148    0.4507   -1.7847 N   0  0  0  0  0  0  0  0  0  0  0  0
    2.8599    0.9240   -1.1626 C   0  0  0  0  0  0  0  0  0  0  0  0
    1.9671    1.5441   -1.7254 O   0  0  0  0  0  0  0  0  0  0  0  0
    4.3818    0.7202   -3.1592 C   0  0  0  0  0  0  0  0  0  0  0  0
    4.9583    0.4451    1.5623 C   0  0  0  0  0  0  0  0  0  0  0  0
    4.8372    1.5709    2.0304 O   0  0  0  0  0  0  0  0  0  0  0  0
    5.9407   -0.3700    2.0172 O   0  0  0  0  0  0  0  0  0  0  0  0
   -0.3111   -5.3169    1.7026 H   0  0  0  0  0  0  0  0  0  0  0  0
   -1.4614   -4.3892    2.7054 H   0  0  0  0  0  0  0  0  0  0  0  0
   -1.4613   -4.1818    0.9531 H   0  0  0  0  0  0  0  0  0  0  0  0
    0.8631   -3.1791    1.0791 H   0  0  0  0  0  0  0  0  0  0  0  0
    0.8535   -3.4182    2.8285 H   0  0  0  0  0  0  0  0  0  0  0  0
   -2.0354   -0.1193    2.3510 H   0  0  0  0  0  0  0  0  0  0  0  0
   -2.6686    1.6337    0.6385 H   0  0  0  0  0  0  0  0  0  0  0  0
   -1.8207    0.6906   -0.5849 H   0  0  0  0  0  0  0  0  0  0  0  0
   -3.2922   -1.2973    0.0040 H   0  0  0  0  0  0  0  0  0  0  0  0
   -4.1670   -0.2961    1.1300 H   0  0  0  0  0  0  0  0  0  0  0  0
   -3.5163   -1.0427   -2.4012 H   0  0  0  0  0  0  0  0  0  0  0  0
   -4.9504   -0.2448   -4.2552 H   0  0  0  0  0  0  0  0  0  0  0  0
   -6.7019    1.4775   -3.8481 H   0  0  0  0  0  0  0  0  0  0  0  0
   -7.0019    2.4020   -1.5700 H   0  0  0  0  0  0  0  0  0  0  0  0
   -5.5780    1.6144    0.2968 H   0  0  0  0  0  0  0  0  0  0  0  0
    0.0973    0.6960    2.7135 H   0  0  0  0  0  0  0  0  0  0  0  0
    0.2523    1.2791   -0.1236 H   0  0  0  0  0  0  0  0  0  0  0  0
    1.8543    3.1888    0.4539 H   0  0  0  0  0  0  0  0  0  0  0  0
    0.1752    3.5438    0.9102 H   0  0  0  0  0  0  0  0  0  0  0  0
    1.3602    3.0536    2.1456 H   0  0  0  0  0  0  0  0  0  0  0  0
    3.8610   -1.2069    0.7283 H   0  0  0  0  0  0  0  0  0  0  0  0
    5.8318    0.4971   -0.7878 H   0  0  0  0  0  0  0  0  0  0  0  0
    5.2217   -1.1319   -1.1914 H   0  0  0  0  0  0  0  0  0  0  0  0
    4.7867   -0.1947   -3.6028 H   0  0  0  0  0  0  0  0  0  0  0  0
    5.1413    1.5162   -3.1717 H   0  0  0  0  0  0  0  0  0  0  0  0
    3.5099    1.0475   -3.7307 H   0  0  0  0  0  0  0  0  0  0  0  0
    6.3539    0.1483    2.7499 H   0  0  0  0  0  0  0  0  0  0  0  0
  1  2  1  0
  2  3  1  0
  3  4  1  0
  4  5  2  0
  4  6  1  0
  6  7  1  0
  7  8  1  0
  8  9  1  0
  9 10  2  0
 10 11  1  0
 11 12  2  0
 12 13  1  0
 13 14  2  0
  6 15  1  0
 15 16  1  0
 16 17  1  0
 16 18  1  0
 18 19  2  0
 18 20  1  0
 20 21  1  0
 21 22  1  0
 22 23  1  0
 23 24  1  0
 24 25  2  0
 23 26  1  0
 21 27  1  0
 27 28  2  0
 27 29  1  0
 14  9  1  0
 24 20  1  0
  1 30  1  0
  1 31  1  0
  1 32  1  0
  2 33  1  0
  2 34  1  0
  6 35  1  1
  7 36  1  0
  7 37  1  0
  8 38  1  0
  8 39  1  0
 10 40  1  0
 11 41  1  0
 12 42  1  0
 13 43  1  0
 14 44  1  0
 15 45  1  0
 16 46  1  6
 17 47  1  0
 17 48  1  0
 17 49  1  0
 21 50  1  1
 22 51  1  0
 22 52  1  0
 26 53  1  0
 26 54  1  0
 26 55  1  0
 29 56  1  0
M  END
$$$$
