
     RDKit          3D

 20 20  0  0  0  0  0  0  0  0999 V2000
    1.5795   -1.0035    0.2106 C   0  0  0  0  0  0  0  0  0  0  0  0
    1.2868    0.1683   -0.7346 C   0  0  1  0  0  0  0  0  0  0  0  0
   -0.2175    0.4298   -0.9611 C   0  0  2  0  0  0  0  0  0  0  0  0
   -1.0431    0.6706    0.2491 C   0  0  0  0  0  0  0  0  0  0  0  0
   -2.0103   -0.2337    0.3690 C   0  0  0  0  0  0  0  0  0  0  0  0
   -1.8653   -1.1601   -0.7722 C   0  0  0  0  0  0  0  0  0  0  0  0
   -2.5555   -2.1345   -1.0020 O   0  0  0  0  0  0  0  0  0  0  0  0
   -0.8286   -0.7287   -1.5530 O   0  0  0  0  0  0  0  0  0  0  0  0
   -2.9811   -0.3088    1.3236 O   0  0  0  0  0  0  0  0  0  0  0  0
   -0.7814    1.7218    1.0843 O   0  0  0  0  0  0  0  0  0  0  0  0
    1.9817    1.3228   -0.2262 O   0  0  0  0  0  0  0  0  0  0  0  0
    2.9942   -1.1715    0.3262 O   0  0  0  0  0  0  0  0  0  0  0  0
    1.1983   -0.8080    1.2176 H   0  0  0  0  0  0  0  0  0  0  0  0
    1.1531   -1.9412   -0.1621 H   0  0  0  0  0  0  0  0  0  0  0  0
    1.7509   -0.0653   -1.7006 H   0  0  0  0  0  0  0  0  0  0  0  0
   -0.3395    1.2727   -1.6510 H   0  0  0  0  0  0  0  0  0  0  0  0
   -3.1836    0.5978    1.6274 H   0  0  0  0  0  0  0  0  0  0  0  0
   -1.1611    1.5377    1.9628 H   0  0  0  0  0  0  0  0  0  0  0  0
    1.6720    2.1042   -0.7169 H   0  0  0  0  0  0  0  0  0  0  0  0
    3.3506   -0.2702    0.4580 H   0  0  0  0  0  0  0  0  0  0  0  0
  1  2  1  0
  2  3  1  0
  3  4  1  0
  4  5  2  0
  5  6  1  0
  6  7  2  0
  6  8  1  0
  5  9  1  0
  4 10  1  0
  2 11  1  0
  1 12  1  0
  8  3  1  0
  1 13  1  0
  1 14  1  0
  2 15  1  6
  3 16  1  6
  9 17  1  0
 10 18  1  0
 11 19  1  0
 12 20  1  0
M  END
$$$$
