
     RDKit          3D

 56 59  0  0  0  0  0  0  0  0999 V2000
   -3.7261   -2.1041    0.4316 C   0  0  0  0  0  0  0  0  0  0  0  0
   -2.6906   -1.3931   -0.4585 C   0  0  2  0  0  0  0  0  0  0  0  0
   -1.3564   -1.2081    0.3175 C   0  0  1  0  0  0  0  0  0  0  0  0
   -0.0932   -1.3040   -0.5564 C   0  0  1  0  0  0  0  0  0  0  0  0
    1.2307   -1.2414    0.2853 C   0  0  1  0  0  0  0  0  0  0  0  0
    2.4325   -1.1872   -0.7062 C   0  0  1  0  0  0  0  0  0  0  0  0
    2.4836    0.2017   -1.3580 C   0  0  0  0  0  0  0  0  0  0  0  0
    2.5979    0.3320   -2.5759 O   0  0  0  0  0  0  0  0  0  0  0  0
    2.3312    1.3958   -0.4720 C   0  0  0  0  0  0  0  0  0  0  0  0
    1.8147    1.2286    0.7641 C   0  0  0  0  0  0  0  0  0  0  0  0
    1.2640   -0.0822    1.3047 C   0  0  1  0  0  0  0  0  0  0  0  0
   -0.1181    0.2249    1.9299 C   0  0  0  0  0  0  0  0  0  0  0  0
   -0.2377    0.6391    3.0850 O   0  0  0  0  0  0  0  0  0  0  0  0
   -1.2960    0.0842    1.0607 C   0  0  0  0  0  0  0  0  0  0  0  0
   -2.1147    1.1312    0.8870 C   0  0  0  0  0  0  0  0  0  0  0  0
   -3.0783    1.1222   -0.2350 C   0  0  0  0  0  0  0  0  0  0  0  0
   -3.2979   -0.0839   -0.9379 C   0  0  0  0  0  0  0  0  0  0  0  0
   -4.1500   -0.0999   -2.0584 C   0  0  0  0  0  0  0  0  0  0  0  0
   -4.7895    1.0628   -2.4822 C   0  0  0  0  0  0  0  0  0  0  0  0
   -4.5942    2.2506   -1.7870 C   0  0  0  0  0  0  0  0  0  0  0  0
   -3.7496    2.2772   -0.6789 C   0  0  0  0  0  0  0  0  0  0  0  0
   -3.6115    3.4961   -0.0682 O   0  0  0  0  0  0  0  0  0  0  0  0
   -2.0344    2.2968    1.6257 O   0  0  0  0  0  0  0  0  0  0  0  0
    2.1142   -0.4292    2.4102 O   0  0  0  0  0  0  0  0  0  0  0  0
    1.8200    2.2848    1.6772 O   0  0  0  0  0  0  0  0  0  0  0  0
    2.8856    2.7013   -0.9280 C   0  0  0  0  0  0  0  0  0  0  0  0
    3.9123    2.7933   -1.5883 O   0  0  0  0  0  0  0  0  0  0  0  0
    2.1962    3.8173   -0.5547 N   0  0  0  0  0  0  0  0  0  0  0  0
    3.7758   -1.6627   -0.3032 N   0  0  0  0  0  0  0  0  0  0  0  0
    4.6259   -0.7995    0.5027 C   0  0  0  0  0  0  0  0  0  0  0  0
    3.7761   -3.0314    0.2042 C   0  0  0  0  0  0  0  0  0  0  0  0
   -0.1213   -2.5409   -1.2728 O   0  0  0  0  0  0  0  0  0  0  0  0
   -4.6667   -2.2682   -0.1062 H   0  0  0  0  0  0  0  0  0  0  0  0
   -3.3560   -3.0842    0.7507 H   0  0  0  0  0  0  0  0  0  0  0  0
   -3.9578   -1.5208    1.3299 H   0  0  0  0  0  0  0  0  0  0  0  0
   -2.5166   -2.0362   -1.3298 H   0  0  0  0  0  0  0  0  0  0  0  0
   -1.2944   -2.0331    1.0430 H   0  0  0  0  0  0  0  0  0  0  0  0
   -0.1100   -0.5041   -1.3068 H   0  0  0  0  0  0  0  0  0  0  0  0
    1.2900   -2.1894    0.8368 H   0  0  0  0  0  0  0  0  0  0  0  0
    2.1751   -1.8517   -1.5434 H   0  0  0  0  0  0  0  0  0  0  0  0
   -4.3265   -1.0262   -2.6024 H   0  0  0  0  0  0  0  0  0  0  0  0
   -5.4450    1.0418   -3.3489 H   0  0  0  0  0  0  0  0  0  0  0  0
   -5.0943    3.1611   -2.1081 H   0  0  0  0  0  0  0  0  0  0  0  0
   -3.0286    3.3560    0.7056 H   0  0  0  0  0  0  0  0  0  0  0  0
   -1.5227    2.1090    2.4429 H   0  0  0  0  0  0  0  0  0  0  0  0
    1.5695   -0.4683    3.2216 H   0  0  0  0  0  0  0  0  0  0  0  0
    1.8931    1.9016    2.5769 H   0  0  0  0  0  0  0  0  0  0  0  0
    1.5630    3.7712    0.2342 H   0  0  0  0  0  0  0  0  0  0  0  0
    2.6523    4.7010   -0.7402 H   0  0  0  0  0  0  0  0  0  0  0  0
    5.6415   -1.2128    0.5383 H   0  0  0  0  0  0  0  0  0  0  0  0
    4.7396    0.1993    0.0662 H   0  0  0  0  0  0  0  0  0  0  0  0
    4.2850   -0.7034    1.5367 H   0  0  0  0  0  0  0  0  0  0  0  0
    3.2125   -3.6981   -0.4602 H   0  0  0  0  0  0  0  0  0  0  0  0
    3.3490   -3.0999    1.2116 H   0  0  0  0  0  0  0  0  0  0  0  0
    4.7970   -3.4273    0.2426 H   0  0  0  0  0  0  0  0  0  0  0  0
   -0.0503   -3.2897   -0.6550 H   0  0  0  0  0  0  0  0  0  0  0  0
  1  2  1  0
  2  3  1  0
  3  4  1  0
  4  5  1  0
  5  6  1  0
  6  7  1  0
  7  8  2  0
  7  9  1  0
  9 10  2  0
 10 11  1  0
 11 12  1  0
 12 13  2  0
 12 14  1  0
 14 15  2  0
 15 16  1  0
 16 17  2  0
 17 18  1  0
 18 19  2  0
 19 20  1  0
 20 21  2  0
 21 22  1  0
 15 23  1  0
 11 24  1  1
 10 25  1  0
  9 26  1  0
 26 27  2  0
 26 28  1  0
  6 29  1  0
 29 30  1  0
 29 31  1  0
  4 32  1  0
 17  2  1  0
 14  3  1  0
 11  5  1  0
 21 16  1  0
  1 33  1  0
  1 34  1  0
  1 35  1  0
  2 36  1  6
  3 37  1  1
  4 38  1  6
  5 39  1  1
  6 40  1  6
 18 41  1  0
 19 42  1  0
 20 43  1  0
 22 44  1  0
 23 45  1  0
 24 46  1  0
 25 47  1  0
 28 48  1  0
 28 49  1  0
 30 50  1  0
 30 51  1  0
 30 52  1  0
 31 53  1  0
 31 54  1  0
 31 55  1  0
 32 56  1  0
M  END
$$$$
