
     RDKit          3D

 39 41  0  0  0  0  0  0  0  0999 V2000
   -1.4965    1.8759   -3.3480 C   0  0  0  0  0  0  0  0  0  0  0  0
   -1.3306    1.0347   -2.1080 C   0  0  0  0  0  0  0  0  0  0  0  0
   -1.0471   -0.1610   -2.2054 O   0  0  0  0  0  0  0  0  0  0  0  0
   -1.5941    1.7400   -0.7859 C   0  0  0  0  0  0  0  0  0  0  0  0
   -1.1241    1.0529    0.5119 C   0  0  0  0  0  0  0  0  0  0  0  0
   -1.9774   -0.0936    1.0505 C   0  0  0  0  0  0  0  0  0  0  0  0
   -1.7586   -0.5363    2.3703 C   0  0  0  0  0  0  0  0  0  0  0  0
   -2.5053   -1.5829    2.9158 C   0  0  0  0  0  0  0  0  0  0  0  0
   -3.4975   -2.1997    2.1533 C   0  0  0  0  0  0  0  0  0  0  0  0
   -3.7542   -1.7577    0.8644 C   0  0  0  0  0  0  0  0  0  0  0  0
   -3.0037   -0.7115    0.3202 C   0  0  0  0  0  0  0  0  0  0  0  0
    0.3806    0.7771    0.4735 C   0  0  0  0  0  0  0  0  0  0  0  0
    0.9679   -0.3434    0.0366 C   0  0  0  0  0  0  0  0  0  0  0  0
    2.4207   -0.5033    0.0328 C   0  0  0  0  0  0  0  0  0  0  0  0
    3.0660   -1.6832   -0.3626 C   0  0  0  0  0  0  0  0  0  0  0  0
    4.4644   -1.7666   -0.3450 C   0  0  0  0  0  0  0  0  0  0  0  0
    5.2314   -0.6690    0.0505 C   0  0  0  0  0  0  0  0  0  0  0  0
    4.6016    0.5124    0.4361 C   0  0  0  0  0  0  0  0  0  0  0  0
    3.2066    0.5727    0.4262 C   0  0  0  0  0  0  0  0  0  0  0  0
    2.6148    1.7705    0.8432 O   0  0  0  0  0  0  0  0  0  0  0  0
    1.2335    1.9203    0.9047 C   0  0  0  0  0  0  0  0  0  0  0  0
    0.7383    2.9737    1.2914 O   0  0  0  0  0  0  0  0  0  0  0  0
    0.2581   -1.4539   -0.3772 O   0  0  0  0  0  0  0  0  0  0  0  0
   -2.5527    2.1345   -3.4772 H   0  0  0  0  0  0  0  0  0  0  0  0
   -1.1566    1.3080   -4.2213 H   0  0  0  0  0  0  0  0  0  0  0  0
   -0.8867    2.7803   -3.2625 H   0  0  0  0  0  0  0  0  0  0  0  0
   -2.6620    1.9589   -0.7516 H   0  0  0  0  0  0  0  0  0  0  0  0
   -1.0835    2.7092   -0.8660 H   0  0  0  0  0  0  0  0  0  0  0  0
   -1.3049    1.8313    1.2630 H   0  0  0  0  0  0  0  0  0  0  0  0
   -0.9933   -0.0687    2.9936 H   0  0  0  0  0  0  0  0  0  0  0  0
   -2.3067   -1.9234    3.9347 H   0  0  0  0  0  0  0  0  0  0  0  0
   -4.0736   -3.0233    2.5686 H   0  0  0  0  0  0  0  0  0  0  0  0
   -4.5332   -2.2363    0.2734 H   0  0  0  0  0  0  0  0  0  0  0  0
   -3.2455   -0.4107   -0.6887 H   0  0  0  0  0  0  0  0  0  0  0  0
    2.4846   -2.5514   -0.6765 H   0  0  0  0  0  0  0  0  0  0  0  0
    4.9544   -2.6962   -0.6309 H   0  0  0  0  0  0  0  0  0  0  0  0
    6.3186   -0.7371    0.0684 H   0  0  0  0  0  0  0  0  0  0  0  0
    5.1884    1.3682    0.7682 H   0  0  0  0  0  0  0  0  0  0  0  0
   -0.2423   -1.2113   -1.2000 H   0  0  0  0  0  0  0  0  0  0  0  0
  1  2  1  0
  2  3  2  0
  2  4  1  0
  4  5  1  0
  5  6  1  0
  6  7  2  0
  7  8  1  0
  8  9  2  0
  9 10  1  0
 10 11  2  0
  5 12  1  0
 12 13  2  0
 13 14  1  0
 14 15  2  0
 15 16  1  0
 16 17  2  0
 17 18  1  0
 18 19  2  0
 19 20  1  0
 20 21  1  0
 21 22  2  0
 13 23  1  0
 11  6  1  0
 21 12  1  0
 19 14  1  0
  1 24  1  0
  1 25  1  0
  1 26  1  0
  4 27  1  0
  4 28  1  0
  5 29  1  0
  7 30  1  0
  8 31  1  0
  9 32  1  0
 10 33  1  0
 11 34  1  0
 15 35  1  0
 16 36  1  0
 17 37  1  0
 18 38  1  0
 23 39  1  0
M  END
$$$$
