
     RDKit          3D

 67 67  0  0  0  0  0  0  0  0999 V2000
    7.0870    4.1321   -1.4356 C   0  0  0  0  0  0  0  0  0  0  0  0
    7.4666    3.1568   -0.3326 C   0  0  0  0  0  0  0  0  0  0  0  0
    7.1521    1.7133   -0.7277 C   0  0  0  0  0  0  0  0  0  0  0  0
    7.5189    0.7394    0.3940 C   0  0  0  0  0  0  0  0  0  0  0  0
    7.3115   -0.7316    0.0198 C   0  0  0  0  0  0  0  0  0  0  0  0
    5.8871   -1.1249   -0.3843 C   0  0  0  0  0  0  0  0  0  0  0  0
    4.8455   -0.8493    0.7021 C   0  0  0  0  0  0  0  0  0  0  0  0
    3.4582   -1.3395    0.2780 C   0  0  0  0  0  0  0  0  0  0  0  0
    2.4119   -1.0404    1.3547 C   0  0  0  0  0  0  0  0  0  0  0  0
    0.9811   -1.3759    0.9219 C   0  0  0  0  0  0  0  0  0  0  0  0
    0.7272   -2.8780    0.7731 C   0  0  0  0  0  0  0  0  0  0  0  0
   -0.6847   -3.2045    0.2728 C   0  0  0  0  0  0  0  0  0  0  0  0
   -1.7874   -2.8202    1.2623 C   0  0  0  0  0  0  0  0  0  0  0  0
   -3.1769   -3.3211    0.8473 C   0  0  0  0  0  0  0  0  0  0  0  0
   -3.6894   -2.7731   -0.4813 C   0  0  0  0  0  0  0  0  0  0  0  0
   -3.8810   -1.2781   -0.4427 C   0  0  0  0  0  0  0  0  0  0  0  0
   -3.0383   -0.4707   -0.8122 O   0  0  0  0  0  0  0  0  0  0  0  0
   -5.0918   -0.9730    0.1006 O   0  0  0  0  0  0  0  0  0  0  0  0
   -5.4477    0.4218    0.1108 C   0  0  0  0  0  0  0  0  0  0  0  0
   -6.5641    0.6706   -0.9086 C   0  0  1  0  0  0  0  0  0  0  0  0
   -7.0070    2.1464   -0.9730 C   0  0  2  0  0  0  0  0  0  0  0  0
   -7.5866    2.7174    0.2669 C   0  0  0  0  0  0  0  0  0  0  0  0
   -8.8842    2.9665    0.1290 C   0  0  0  0  0  0  0  0  0  0  0  0
   -9.2484    2.6127   -1.2551 C   0  0  0  0  0  0  0  0  0  0  0  0
  -10.3538    2.6726   -1.7585 O   0  0  0  0  0  0  0  0  0  0  0  0
   -8.1129    2.2086   -1.9047 O   0  0  0  0  0  0  0  0  0  0  0  0
   -9.7175    3.5077    1.0648 O   0  0  0  0  0  0  0  0  0  0  0  0
   -6.8592    3.0298    1.3879 O   0  0  0  0  0  0  0  0  0  0  0  0
   -6.0967    0.2812   -2.2141 O   0  0  0  0  0  0  0  0  0  0  0  0
    7.6300    3.9119   -2.3604 H   0  0  0  0  0  0  0  0  0  0  0  0
    6.0142    4.0859   -1.6475 H   0  0  0  0  0  0  0  0  0  0  0  0
    7.3306    5.1558   -1.1337 H   0  0  0  0  0  0  0  0  0  0  0  0
    6.9222    3.4192    0.5824 H   0  0  0  0  0  0  0  0  0  0  0  0
    8.5365    3.2599   -0.1152 H   0  0  0  0  0  0  0  0  0  0  0  0
    6.0845    1.6326   -0.9616 H   0  0  0  0  0  0  0  0  0  0  0  0
    7.7062    1.4522   -1.6376 H   0  0  0  0  0  0  0  0  0  0  0  0
    6.9473    0.9803    1.2977 H   0  0  0  0  0  0  0  0  0  0  0  0
    8.5760    0.8759    0.6556 H   0  0  0  0  0  0  0  0  0  0  0  0
    7.6224   -1.3508    0.8705 H   0  0  0  0  0  0  0  0  0  0  0  0
    7.9864   -0.9850   -0.8074 H   0  0  0  0  0  0  0  0  0  0  0  0
    5.8853   -2.1973   -0.6190 H   0  0  0  0  0  0  0  0  0  0  0  0
    5.6056   -0.6093   -1.3099 H   0  0  0  0  0  0  0  0  0  0  0  0
    4.7944    0.2255    0.9086 H   0  0  0  0  0  0  0  0  0  0  0  0
    5.1429   -1.3478    1.6325 H   0  0  0  0  0  0  0  0  0  0  0  0
    3.5031   -2.4169    0.0842 H   0  0  0  0  0  0  0  0  0  0  0  0
    3.1696   -0.8501   -0.6603 H   0  0  0  0  0  0  0  0  0  0  0  0
    2.6578   -1.5836    2.2753 H   0  0  0  0  0  0  0  0  0  0  0  0
    2.4492    0.0287    1.5998 H   0  0  0  0  0  0  0  0  0  0  0  0
    0.7516   -0.8636   -0.0198 H   0  0  0  0  0  0  0  0  0  0  0  0
    0.3031   -0.9660    1.6790 H   0  0  0  0  0  0  0  0  0  0  0  0
    1.4376   -3.3038    0.0561 H   0  0  0  0  0  0  0  0  0  0  0  0
    0.9046   -3.3809    1.7311 H   0  0  0  0  0  0  0  0  0  0  0  0
   -0.7376   -4.2831    0.0810 H   0  0  0  0  0  0  0  0  0  0  0  0
   -0.8454   -2.7020   -0.6874 H   0  0  0  0  0  0  0  0  0  0  0  0
   -1.5519   -3.2482    2.2445 H   0  0  0  0  0  0  0  0  0  0  0  0
   -1.8173   -1.7334    1.3947 H   0  0  0  0  0  0  0  0  0  0  0  0
   -3.8856   -3.0604    1.6432 H   0  0  0  0  0  0  0  0  0  0  0  0
   -3.1590   -4.4163    0.7920 H   0  0  0  0  0  0  0  0  0  0  0  0
   -4.6507   -3.2377   -0.7324 H   0  0  0  0  0  0  0  0  0  0  0  0
   -3.0191   -3.0180   -1.3114 H   0  0  0  0  0  0  0  0  0  0  0  0
   -4.5875    1.0681   -0.0937 H   0  0  0  0  0  0  0  0  0  0  0  0
   -5.7914    0.6407    1.1254 H   0  0  0  0  0  0  0  0  0  0  0  0
   -7.4144    0.0130   -0.6910 H   0  0  0  0  0  0  0  0  0  0  0  0
   -6.2093    2.7823   -1.3751 H   0  0  0  0  0  0  0  0  0  0  0  0
   -9.1744    3.6464    1.8637 H   0  0  0  0  0  0  0  0  0  0  0  0
   -5.9152    3.1121    1.1545 H   0  0  0  0  0  0  0  0  0  0  0  0
   -6.8218    0.4671   -2.8419 H   0  0  0  0  0  0  0  0  0  0  0  0
  1  2  1  0
  2  3  1  0
  3  4  1  0
  4  5  1  0
  5  6  1  0
  6  7  1  0
  7  8  1  0
  8  9  1  0
  9 10  1  0
 10 11  1  0
 11 12  1  0
 12 13  1  0
 13 14  1  0
 14 15  1  0
 15 16  1  0
 16 17  2  0
 16 18  1  0
 18 19  1  0
 19 20  1  0
 20 21  1  0
 21 22  1  0
 22 23  2  0
 23 24  1  0
 24 25  2  0
 24 26  1  0
 23 27  1  0
 22 28  1  0
 20 29  1  0
 26 21  1  0
  1 30  1  0
  1 31  1  0
  1 32  1  0
  2 33  1  0
  2 34  1  0
  3 35  1  0
  3 36  1  0
  4 37  1  0
  4 38  1  0
  5 39  1  0
  5 40  1  0
  6 41  1  0
  6 42  1  0
  7 43  1  0
  7 44  1  0
  8 45  1  0
  8 46  1  0
  9 47  1  0
  9 48  1  0
 10 49  1  0
 10 50  1  0
 11 51  1  0
 11 52  1  0
 12 53  1  0
 12 54  1  0
 13 55  1  0
 13 56  1  0
 14 57  1  0
 14 58  1  0
 15 59  1  0
 15 60  1  0
 19 61  1  0
 19 62  1  0
 20 63  1  1
 21 64  1  6
 27 65  1  0
 28 66  1  0
 29 67  1  0
M  END
$$$$
