
     RDKit          3D

 46 48  0  0  0  0  0  0  0  0999 V2000
   -0.2808   -1.8967    2.8726 C   0  0  0  0  0  0  0  0  0  0  0  0
   -0.6581   -0.8627    1.9181 N   0  0  0  0  0  0  0  0  0  0  0  0
   -1.8498   -1.0079    1.1407 C   0  0  0  0  0  0  0  0  0  0  0  0
   -2.2346    0.0091    0.2369 C   0  0  0  0  0  0  0  0  0  0  0  0
   -3.4426   -0.1452   -0.4981 C   0  0  0  0  0  0  0  0  0  0  0  0
   -4.2227   -1.2961   -0.3403 C   0  0  0  0  0  0  0  0  0  0  0  0
   -3.8277   -2.2957    0.5395 C   0  0  0  0  0  0  0  0  0  0  0  0
   -2.6539   -2.1527    1.2734 C   0  0  0  0  0  0  0  0  0  0  0  0
   -3.7880    0.8784   -1.3522 O   0  0  0  0  0  0  0  0  0  0  0  0
   -5.0313    0.7846   -2.0433 C   0  0  0  0  0  0  0  0  0  0  0  0
   -1.3388    1.1860    0.1023 C   0  0  0  0  0  0  0  0  0  0  0  0
   -0.2222    1.2950    0.8377 C   0  0  0  0  0  0  0  0  0  0  0  0
    0.1519    0.2658    1.8341 C   0  0  0  0  0  0  0  0  0  0  0  0
    1.1473    0.4262    2.5412 O   0  0  0  0  0  0  0  0  0  0  0  0
    0.6307    2.5060    0.6838 C   0  0  0  0  0  0  0  0  0  0  0  0
    0.2000    3.5893    1.0908 O   0  0  0  0  0  0  0  0  0  0  0  0
    1.9372    2.3394    0.2028 N   0  0  0  0  0  0  0  0  0  0  0  0
    2.8848    3.4007    0.5155 C   0  0  0  0  0  0  0  0  0  0  0  0
    2.4355    1.1711   -0.4493 C   0  0  0  0  0  0  0  0  0  0  0  0
    1.6747    0.5019   -1.4153 C   0  0  0  0  0  0  0  0  0  0  0  0
    2.1670   -0.6399   -2.0574 C   0  0  0  0  0  0  0  0  0  0  0  0
    3.4401   -1.1367   -1.7519 C   0  0  0  0  0  0  0  0  0  0  0  0
    4.2201   -0.4479   -0.8142 C   0  0  0  0  0  0  0  0  0  0  0  0
    3.7249    0.6955   -0.1769 C   0  0  0  0  0  0  0  0  0  0  0  0
    3.9803   -2.3584   -2.4528 C   0  0  0  0  0  0  0  0  0  0  0  0
    4.8402   -3.0812   -1.6819 F   0  0  0  0  0  0  0  0  0  0  0  0
    4.6671   -2.0450   -3.5856 F   0  0  0  0  0  0  0  0  0  0  0  0
    3.0058   -3.2306   -2.8363 F   0  0  0  0  0  0  0  0  0  0  0  0
   -1.6458    2.1468   -0.8484 O   0  0  0  0  0  0  0  0  0  0  0  0
    0.6438   -1.6537    3.4035 H   0  0  0  0  0  0  0  0  0  0  0  0
   -0.1180   -2.8399    2.3419 H   0  0  0  0  0  0  0  0  0  0  0  0
   -1.0723   -2.0079    3.6206 H   0  0  0  0  0  0  0  0  0  0  0  0
   -5.1451   -1.4501   -0.8906 H   0  0  0  0  0  0  0  0  0  0  0  0
   -4.4362   -3.1894    0.6577 H   0  0  0  0  0  0  0  0  0  0  0  0
   -2.3927   -2.9610    1.9505 H   0  0  0  0  0  0  0  0  0  0  0  0
   -5.0335   -0.0646   -2.7343 H   0  0  0  0  0  0  0  0  0  0  0  0
   -5.1499    1.6960   -2.6372 H   0  0  0  0  0  0  0  0  0  0  0  0
   -5.8705    0.7331   -1.3411 H   0  0  0  0  0  0  0  0  0  0  0  0
    2.3818    4.3696    0.5931 H   0  0  0  0  0  0  0  0  0  0  0  0
    3.3571    3.1818    1.4784 H   0  0  0  0  0  0  0  0  0  0  0  0
    3.6428    3.4829   -0.2702 H   0  0  0  0  0  0  0  0  0  0  0  0
    0.7083    0.8883   -1.7287 H   0  0  0  0  0  0  0  0  0  0  0  0
    1.5507   -1.1325   -2.8086 H   0  0  0  0  0  0  0  0  0  0  0  0
    5.2191   -0.8032   -0.5631 H   0  0  0  0  0  0  0  0  0  0  0  0
    4.3500    1.1801    0.5693 H   0  0  0  0  0  0  0  0  0  0  0  0
   -2.5468    1.9716   -1.1812 H   0  0  0  0  0  0  0  0  0  0  0  0
  1  2  1  0
  2  3  1  0
  3  4  2  0
  4  5  1  0
  5  6  2  0
  6  7  1  0
  7  8  2  0
  5  9  1  0
  9 10  1  0
  4 11  1  0
 11 12  2  0
 12 13  1  0
 13 14  2  0
 12 15  1  0
 15 16  2  0
 15 17  1  0
 17 18  1  0
 17 19  1  0
 19 20  2  0
 20 21  1  0
 21 22  2  0
 22 23  1  0
 23 24  2  0
 22 25  1  0
 25 26  1  0
 25 27  1  0
 25 28  1  0
 11 29  1  0
 13  2  1  0
  8  3  1  0
 24 19  1  0
  1 30  1  0
  1 31  1  0
  1 32  1  0
  6 33  1  0
  7 34  1  0
  8 35  1  0
 10 36  1  0
 10 37  1  0
 10 38  1  0
 18 39  1  0
 18 40  1  0
 18 41  1  0
 20 42  1  0
 21 43  1  0
 23 44  1  0
 24 45  1  0
 29 46  1  0
M  END
$$$$
