
     RDKit          3D

 36 36  0  0  0  0  0  0  0  0999 V2000
    4.0032    0.3392    0.4158 C   0  0  0  0  0  0  0  0  0  0  0  0
    5.1651    0.0962    1.3743 C   0  0  0  0  0  0  0  0  0  0  0  0
    6.1131   -0.8760    0.8422 N   0  0  0  0  0  0  0  0  0  0  0  0
    3.1309   -0.8962    0.2243 C   0  0  0  0  0  0  0  0  0  0  0  0
    2.0488   -0.5571   -0.6330 O   0  0  0  0  0  0  0  0  0  0  0  0
    0.8543   -1.6256   -0.7409 P   0  0  0  0  0  5  0  0  0  0  0  0
    0.4353   -2.3248    0.5115 O   0  0  0  0  0  0  0  0  0  0  0  0
    1.4373   -2.6229   -1.8588 O   0  0  0  0  0  0  0  0  0  0  0  0
   -0.3149   -0.8815   -1.5550 O   0  0  0  0  0  0  0  0  0  0  0  0
   -1.0959    0.1106   -1.0427 C   0  0  0  0  0  0  0  0  0  0  0  0
   -2.2073    0.6029   -1.5801 C   0  0  0  0  0  0  0  0  0  0  0  0
   -2.8110    1.6509   -0.7210 C   0  0  2  0  0  0  0  0  0  0  0  0
   -1.9346    1.7067    0.4058 O   0  0  0  0  0  0  0  0  0  0  0  0
   -0.9055    0.8172    0.2349 C   0  0  0  0  0  0  0  0  0  0  0  0
   -0.0036    0.6393    1.0319 O   0  0  0  0  0  0  0  0  0  0  0  0
   -4.2641    1.3652   -0.3066 C   0  0  2  0  0  0  0  0  0  0  0  0
   -4.4554    0.0756    0.5020 C   0  0  0  0  0  0  0  0  0  0  0  0
   -5.8610   -0.1352    0.6946 O   0  0  0  0  0  0  0  0  0  0  0  0
   -5.0883    1.2929   -1.4930 O   0  0  0  0  0  0  0  0  0  0  0  0
   -2.7906    0.2038   -2.7539 O   0  0  0  0  0  0  0  0  0  0  0  0
    3.3779    1.1491    0.8122 H   0  0  0  0  0  0  0  0  0  0  0  0
    4.3653    0.7057   -0.5525 H   0  0  0  0  0  0  0  0  0  0  0  0
    4.7806   -0.2534    2.3411 H   0  0  0  0  0  0  0  0  0  0  0  0
    5.6917    1.0404    1.5578 H   0  0  0  0  0  0  0  0  0  0  0  0
    6.6025   -0.4691    0.0450 H   0  0  0  0  0  0  0  0  0  0  0  0
    6.8281   -1.0747    1.5417 H   0  0  0  0  0  0  0  0  0  0  0  0
    2.7429   -1.2306    1.1944 H   0  0  0  0  0  0  0  0  0  0  0  0
    3.6936   -1.7146   -0.2350 H   0  0  0  0  0  0  0  0  0  0  0  0
    1.6966   -2.1409   -2.6643 H   0  0  0  0  0  0  0  0  0  0  0  0
   -2.7672    2.6128   -1.2460 H   0  0  0  0  0  0  0  0  0  0  0  0
   -4.6384    2.2075    0.2859 H   0  0  0  0  0  0  0  0  0  0  0  0
   -3.9792    0.1470    1.4882 H   0  0  0  0  0  0  0  0  0  0  0  0
   -4.0535   -0.7984   -0.0207 H   0  0  0  0  0  0  0  0  0  0  0  0
   -6.1063   -0.9032    0.1349 H   0  0  0  0  0  0  0  0  0  0  0  0
   -5.9957    1.1493   -1.1447 H   0  0  0  0  0  0  0  0  0  0  0  0
   -3.6945    0.5920   -2.7858 H   0  0  0  0  0  0  0  0  0  0  0  0
  1  2  1  0
  2  3  1  0
  1  4  1  0
  4  5  1  0
  5  6  1  0
  6  7  2  0
  6  8  1  0
  6  9  1  0
  9 10  1  0
 10 11  2  0
 11 12  1  0
 12 13  1  0
 13 14  1  0
 14 15  2  0
 12 16  1  0
 16 17  1  0
 17 18  1  0
 16 19  1  0
 11 20  1  0
 14 10  1  0
  1 21  1  0
  1 22  1  0
  2 23  1  0
  2 24  1  0
  3 25  1  0
  3 26  1  0
  4 27  1  0
  4 28  1  0
  8 29  1  0
 12 30  1  6
 16 31  1  1
 17 32  1  0
 17 33  1  0
 18 34  1  0
 19 35  1  0
 20 36  1  0
M  END
$$$$
