
     RDKit          3D

 52 54  0  0  0  0  0  0  0  0999 V2000
    0.7691    1.0652    0.6662 C   0  0  0  0  0  0  0  0  0  0  0  0
   -0.6692    0.5214    0.6096 C   0  0  0  0  0  0  0  0  0  0  0  0
   -0.9005   -0.3894   -0.5293 N   0  0  0  0  0  0  0  0  0  0  0  0
    0.3131   -1.1491   -0.8976 C   0  0  0  0  0  0  0  0  0  0  0  0
    1.2949   -1.3874    0.2644 C   0  0  0  0  0  0  0  0  0  0  0  0
    1.7680   -0.0699    0.8610 N   0  0  0  0  0  4  0  0  0  0  0  0
    2.2729   -0.1932    2.2916 C   0  0  0  0  0  0  0  0  0  0  0  0
    3.5790   -1.0048    2.3941 C   0  0  0  0  0  0  0  0  0  0  0  0
    4.5929   -0.5231    1.3895 C   0  0  0  0  0  0  0  0  0  0  0  0
    5.0564    0.7985    1.4331 C   0  0  0  0  0  0  0  0  0  0  0  0
    5.7488    1.3286    0.3473 C   0  0  0  0  0  0  0  0  0  0  0  0
    6.0092    0.5481   -0.7881 C   0  0  0  0  0  0  0  0  0  0  0  0
    5.6436   -0.8053   -0.7703 C   0  0  0  0  0  0  0  0  0  0  0  0
    4.9508   -1.3422    0.3118 C   0  0  0  0  0  0  0  0  0  0  0  0
    6.6404    1.1620   -2.0207 C   0  0  0  0  0  0  0  0  0  0  0  0
    6.8002    0.3945   -3.0182 O   0  0  0  0  0  0  0  0  0  0  0  0
    6.9078    2.4007   -1.9644 O   0  0  0  0  0  1  0  0  0  0  0  0
   -2.0651   -1.2639   -0.3386 C   0  0  0  0  0  0  0  0  0  0  0  0
   -3.3544   -0.4992   -0.2495 C   0  0  0  0  0  0  0  0  0  0  0  0
   -4.3454   -0.5967   -1.1517 C   0  0  0  0  0  0  0  0  0  0  0  0
   -5.6166    0.1302   -1.0470 C   0  0  0  0  0  0  0  0  0  0  0  0
   -6.8062   -0.5303   -1.3817 C   0  0  0  0  0  0  0  0  0  0  0  0
   -8.0327    0.1378   -1.3163 C   0  0  0  0  0  0  0  0  0  0  0  0
   -8.0726    1.4745   -0.9274 C   0  0  0  0  0  0  0  0  0  0  0  0
   -6.8969    2.1500   -0.6092 C   0  0  0  0  0  0  0  0  0  0  0  0
   -5.6713    1.4802   -0.6739 C   0  0  0  0  0  0  0  0  0  0  0  0
   -9.5806    2.2974   -0.8459 Cl  0  0  0  0  0  0  0  0  0  0  0  0
    1.0393    1.5611   -0.2735 H   0  0  0  0  0  0  0  0  0  0  0  0
    0.8937    1.7844    1.4815 H   0  0  0  0  0  0  0  0  0  0  0  0
   -1.3544    1.3729    0.5306 H   0  0  0  0  0  0  0  0  0  0  0  0
   -0.8812    0.0163    1.5614 H   0  0  0  0  0  0  0  0  0  0  0  0
    0.0612   -2.1101   -1.3621 H   0  0  0  0  0  0  0  0  0  0  0  0
    0.8337   -0.5778   -1.6773 H   0  0  0  0  0  0  0  0  0  0  0  0
    2.1799   -1.9269   -0.0810 H   0  0  0  0  0  0  0  0  0  0  0  0
    0.8110   -1.9601    1.0636 H   0  0  0  0  0  0  0  0  0  0  0  0
    2.5827    0.2192    0.2895 H   0  0  0  0  0  0  0  0  0  0  0  0
    2.4465    0.8266    2.6530 H   0  0  0  0  0  0  0  0  0  0  0  0
    1.4725   -0.6392    2.8916 H   0  0  0  0  0  0  0  0  0  0  0  0
    3.3644   -2.0694    2.2426 H   0  0  0  0  0  0  0  0  0  0  0  0
    3.9941   -0.9129    3.4048 H   0  0  0  0  0  0  0  0  0  0  0  0
    4.8471    1.4495    2.2781 H   0  0  0  0  0  0  0  0  0  0  0  0
    6.0719    2.3702    0.3558 H   0  0  0  0  0  0  0  0  0  0  0  0
    5.8849   -1.4275   -1.6328 H   0  0  0  0  0  0  0  0  0  0  0  0
    4.6573   -2.3878    0.2688 H   0  0  0  0  0  0  0  0  0  0  0  0
   -2.1348   -1.9635   -1.1819 H   0  0  0  0  0  0  0  0  0  0  0  0
   -1.9467   -1.8770    0.5638 H   0  0  0  0  0  0  0  0  0  0  0  0
   -3.4882    0.1314    0.6252 H   0  0  0  0  0  0  0  0  0  0  0  0
   -4.2451   -1.2510   -2.0152 H   0  0  0  0  0  0  0  0  0  0  0  0
   -6.7911   -1.5737   -1.6897 H   0  0  0  0  0  0  0  0  0  0  0  0
   -8.9482   -0.3890   -1.5721 H   0  0  0  0  0  0  0  0  0  0  0  0
   -6.9254    3.1968   -0.3187 H   0  0  0  0  0  0  0  0  0  0  0  0
   -4.7608    2.0285   -0.4448 H   0  0  0  0  0  0  0  0  0  0  0  0
  1  2  1  0
  2  3  1  0
  3  4  1  0
  4  5  1  0
  5  6  1  0
  6  7  1  0
  7  8  1  0
  8  9  1  0
  9 10  2  0
 10 11  1  0
 11 12  2  0
 12 13  1  0
 13 14  2  0
 12 15  1  0
 15 16  2  0
 15 17  1  0
  3 18  1  0
 18 19  1  0
 19 20  2  0
 20 21  1  0
 21 22  2  0
 22 23  1  0
 23 24  2  0
 24 25  1  0
 25 26  2  0
 24 27  1  0
  6  1  1  0
 14  9  1  0
 26 21  1  0
  1 28  1  0
  1 29  1  0
  2 30  1  0
  2 31  1  0
  4 32  1  0
  4 33  1  0
  5 34  1  0
  5 35  1  0
  6 36  1  0
  7 37  1  0
  7 38  1  0
  8 39  1  0
  8 40  1  0
 10 41  1  0
 11 42  1  0
 13 43  1  0
 14 44  1  0
 18 45  1  0
 18 46  1  0
 19 47  1  0
 20 48  1  0
 22 49  1  0
 23 50  1  0
 25 51  1  0
 26 52  1  0
M  CHG  2   6   1  17  -1
M  END
$$$$
