
     RDKit          3D

 90 93  0  0  0  0  0  0  0  0999 V2000
    9.8355    1.2250    0.7940 C   0  0  0  0  0  0  0  0  0  0  0  0
    8.3390    1.5631    0.7165 C   0  0  0  0  0  0  0  0  0  0  0  0
    7.9866    2.4829    1.8986 C   0  0  0  0  0  0  0  0  0  0  0  0
    7.3943    0.3495    0.6413 C   0  0  0  0  0  0  0  0  0  0  0  0
    7.8055   -0.9108    0.8428 C   0  0  0  0  0  0  0  0  0  0  0  0
    5.9467    0.7147    0.2946 C   0  0  0  0  0  0  0  0  0  0  0  0
    4.9299   -0.4398    0.0836 C   0  0  0  0  0  0  0  0  0  0  0  0
    3.5005    0.1106   -0.1682 C   0  0  2  0  0  0  0  0  0  0  0  0
    2.3774   -0.9740   -0.2286 C   0  0  1  0  0  0  0  0  0  0  0  0
    2.3713   -1.8956    1.0328 C   0  0  1  0  0  0  0  0  0  0  0  0
    0.8953   -2.1259    1.4177 C   0  0  0  0  0  0  0  0  0  0  0  0
    0.0775   -1.7195    0.1756 C   0  0  2  0  0  0  0  0  0  0  0  0
    0.8978   -0.4585   -0.2880 C   0  0  2  0  0  0  0  0  0  0  0  0
    0.3808   -0.0635   -1.6729 C   0  0  0  0  0  0  0  0  0  0  0  0
   -1.1397    0.1680   -1.6778 C   0  0  0  0  0  0  0  0  0  0  0  0
   -1.9632   -0.4655   -0.5466 C   0  0  0  0  0  0  0  0  0  0  0  0
   -1.3873   -1.3299    0.3325 C   0  0  0  0  0  0  0  0  0  0  0  0
   -2.1503   -1.9218    1.4938 C   0  0  0  0  0  0  0  0  0  0  0  0
   -3.4355   -1.1578    1.8455 C   0  0  0  0  0  0  0  0  0  0  0  0
   -4.2459   -0.8825    0.5675 C   0  0  2  0  0  0  0  0  0  0  0  0
   -3.4335    0.0214   -0.4207 C   0  0  2  0  0  0  0  0  0  0  0  0
   -4.1592   -0.0566   -1.8007 C   0  0  0  0  0  0  0  0  0  0  0  0
   -5.6671   -0.3526   -1.7556 C   0  0  0  0  0  0  0  0  0  0  0  0
   -6.3686    0.1767   -0.4981 C   0  0  1  0  0  0  0  0  0  0  0  0
   -5.7565   -0.4671    0.8006 C   0  0  0  0  0  0  0  0  0  0  0  0
   -6.0000    0.4367    2.0376 C   0  0  0  0  0  0  0  0  0  0  0  0
   -6.5550   -1.7761    1.0938 C   0  0  0  0  0  0  0  0  0  0  0  0
   -6.2154    1.6067   -0.5078 O   0  0  0  0  0  0  0  0  0  0  0  0
   -7.3183    2.3678   -0.7279 C   0  0  0  0  0  0  0  0  0  0  0  0
   -8.4586    1.9566   -0.8782 O   0  0  0  0  0  0  0  0  0  0  0  0
   -6.9511    3.8218   -0.6896 C   0  0  0  0  0  0  0  0  0  0  0  0
   -3.3207    1.4781    0.0655 C   0  0  0  0  0  0  0  0  0  0  0  0
    0.7386    0.7485    0.6860 C   0  0  0  0  0  0  0  0  0  0  0  0
    0.0882   -2.9128   -0.8271 C   0  0  0  0  0  0  0  0  0  0  0  0
    2.9661   -3.1512    0.7324 O   0  0  0  0  0  0  0  0  0  0  0  0
    3.5110    0.9145   -1.4428 C   0  0  0  0  0  0  0  0  0  0  0  0
    3.3562    2.1191   -1.5280 O   0  0  0  0  0  0  0  0  0  0  0  0
    3.7303    0.1679   -2.5434 O   0  0  0  0  0  0  0  0  0  0  0  0
   10.4355    2.1420    0.7405 H   0  0  0  0  0  0  0  0  0  0  0  0
   10.0807    0.7159    1.7387 H   0  0  0  0  0  0  0  0  0  0  0  0
   10.1374    0.5926   -0.0454 H   0  0  0  0  0  0  0  0  0  0  0  0
    8.2006    2.1390   -0.2083 H   0  0  0  0  0  0  0  0  0  0  0  0
    8.6940    3.3193    1.9672 H   0  0  0  0  0  0  0  0  0  0  0  0
    6.9916    2.9197    1.7897 H   0  0  0  0  0  0  0  0  0  0  0  0
    8.0099    1.9296    2.8473 H   0  0  0  0  0  0  0  0  0  0  0  0
    7.1250   -1.7670    0.7856 H   0  0  0  0  0  0  0  0  0  0  0  0
    8.8364   -1.1595    1.0876 H   0  0  0  0  0  0  0  0  0  0  0  0
    5.9778    1.3262   -0.6162 H   0  0  0  0  0  0  0  0  0  0  0  0
    5.5614    1.3489    1.1032 H   0  0  0  0  0  0  0  0  0  0  0  0
    5.2539   -1.0714   -0.7574 H   0  0  0  0  0  0  0  0  0  0  0  0
    4.9295   -1.0624    0.9880 H   0  0  0  0  0  0  0  0  0  0  0  0
    3.2834    0.8015    0.6504 H   0  0  0  0  0  0  0  0  0  0  0  0
    2.5834   -1.5934   -1.1113 H   0  0  0  0  0  0  0  0  0  0  0  0
    2.9078   -1.4592    1.8829 H   0  0  0  0  0  0  0  0  0  0  0  0
    0.6520   -1.4784    2.2691 H   0  0  0  0  0  0  0  0  0  0  0  0
    0.7113   -3.1600    1.7335 H   0  0  0  0  0  0  0  0  0  0  0  0
    0.8705    0.8477   -2.0408 H   0  0  0  0  0  0  0  0  0  0  0  0
    0.6241   -0.8377   -2.4119 H   0  0  0  0  0  0  0  0  0  0  0  0
   -1.5308   -0.1645   -2.6495 H   0  0  0  0  0  0  0  0  0  0  0  0
   -1.3034    1.2546   -1.6569 H   0  0  0  0  0  0  0  0  0  0  0  0
   -2.4159   -2.9608    1.2526 H   0  0  0  0  0  0  0  0  0  0  0  0
   -1.5381   -1.9557    2.4045 H   0  0  0  0  0  0  0  0  0  0  0  0
   -4.0190   -1.7567    2.5548 H   0  0  0  0  0  0  0  0  0  0  0  0
   -3.1757   -0.2259    2.3505 H   0  0  0  0  0  0  0  0  0  0  0  0
   -4.3040   -1.8653    0.0631 H   0  0  0  0  0  0  0  0  0  0  0  0
   -3.7192   -0.8472   -2.4147 H   0  0  0  0  0  0  0  0  0  0  0  0
   -4.0041    0.8725   -2.3676 H   0  0  0  0  0  0  0  0  0  0  0  0
   -6.1342    0.0812   -2.6452 H   0  0  0  0  0  0  0  0  0  0  0  0
   -5.8232   -1.4420   -1.8303 H   0  0  0  0  0  0  0  0  0  0  0  0
   -7.4276   -0.0866   -0.5639 H   0  0  0  0  0  0  0  0  0  0  0  0
   -7.0681    0.4368    2.3191 H   0  0  0  0  0  0  0  0  0  0  0  0
   -5.7393    1.4900    1.8672 H   0  0  0  0  0  0  0  0  0  0  0  0
   -5.4489    0.0844    2.9162 H   0  0  0  0  0  0  0  0  0  0  0  0
   -6.4581   -2.4988    0.2786 H   0  0  0  0  0  0  0  0  0  0  0  0
   -6.1948   -2.2643    2.0141 H   0  0  0  0  0  0  0  0  0  0  0  0
   -7.6256   -1.5760    1.2251 H   0  0  0  0  0  0  0  0  0  0  0  0
   -6.8601    4.1559    0.3503 H   0  0  0  0  0  0  0  0  0  0  0  0
   -6.0100    3.9944   -1.2133 H   0  0  0  0  0  0  0  0  0  0  0  0
   -7.7266    4.4078   -1.1924 H   0  0  0  0  0  0  0  0  0  0  0  0
   -3.2080    2.1922   -0.7687 H   0  0  0  0  0  0  0  0  0  0  0  0
   -2.4545    1.6376    0.7255 H   0  0  0  0  0  0  0  0  0  0  0  0
   -4.1682    1.8328    0.6513 H   0  0  0  0  0  0  0  0  0  0  0  0
    1.0626    1.6964    0.2156 H   0  0  0  0  0  0  0  0  0  0  0  0
   -0.2990    0.9061    1.0217 H   0  0  0  0  0  0  0  0  0  0  0  0
    1.3288    0.6255    1.6144 H   0  0  0  0  0  0  0  0  0  0  0  0
    1.0511   -3.0367   -1.3479 H   0  0  0  0  0  0  0  0  0  0  0  0
   -0.1199   -3.8662   -0.3113 H   0  0  0  0  0  0  0  0  0  0  0  0
   -0.6717   -2.8038   -1.6159 H   0  0  0  0  0  0  0  0  0  0  0  0
    3.7844   -2.9985    0.2204 H   0  0  0  0  0  0  0  0  0  0  0  0
    3.7525    0.8189   -3.2798 H   0  0  0  0  0  0  0  0  0  0  0  0
  1  2  1  0
  2  3  1  0
  2  4  1  0
  4  5  2  3
  4  6  1  0
  6  7  1  0
  7  8  1  0
  8  9  1  0
  9 10  1  0
 10 11  1  0
 11 12  1  0
 12 13  1  0
 13 14  1  0
 14 15  1  0
 15 16  1  0
 16 17  2  0
 17 18  1  0
 18 19  1  0
 19 20  1  0
 20 21  1  0
 21 22  1  0
 22 23  1  0
 23 24  1  0
 24 25  1  0
 25 26  1  0
 25 27  1  0
 24 28  1  0
 28 29  1  0
 29 30  2  0
 29 31  1  0
 21 32  1  1
 13 33  1  1
 12 34  1  6
 10 35  1  0
  8 36  1  0
 36 37  2  0
 36 38  1  0
 13  9  1  0
 17 12  1  0
 21 16  1  0
 25 20  1  0
  1 39  1  0
  1 40  1  0
  1 41  1  0
  2 42  1  0
  3 43  1  0
  3 44  1  0
  3 45  1  0
  5 46  1  0
  5 47  1  0
  6 48  1  0
  6 49  1  0
  7 50  1  0
  7 51  1  0
  8 52  1  1
  9 53  1  6
 10 54  1  1
 11 55  1  0
 11 56  1  0
 14 57  1  0
 14 58  1  0
 15 59  1  0
 15 60  1  0
 18 61  1  0
 18 62  1  0
 19 63  1  0
 19 64  1  0
 20 65  1  6
 22 66  1  0
 22 67  1  0
 23 68  1  0
 23 69  1  0
 24 70  1  6
 26 71  1  0
 26 72  1  0
 26 73  1  0
 27 74  1  0
 27 75  1  0
 27 76  1  0
 31 77  1  0
 31 78  1  0
 31 79  1  0
 32 80  1  0
 32 81  1  0
 32 82  1  0
 33 83  1  0
 33 84  1  0
 33 85  1  0
 34 86  1  0
 34 87  1  0
 34 88  1  0
 35 89  1  0
 38 90  1  0
M  END
$$$$
