
     RDKit          3D

 35 36  0  0  0  0  0  0  0  0999 V2000
   -1.2439   -2.5664   -0.1882 C   0  0  0  0  0  0  0  0  0  0  0  0
   -1.9476   -1.2077   -0.0901 C   0  0  0  0  0  0  0  0  0  0  0  0
   -1.5778   -0.4342    1.1824 C   0  0  0  0  0  0  0  0  0  0  0  0
   -2.1586    0.9843    1.2183 C   0  0  0  0  0  0  0  0  0  0  0  0
   -1.4602    1.9825    0.2874 C   0  0  0  0  0  0  0  0  0  0  0  0
   -0.2371    2.6405    0.8614 C   0  0  0  0  0  0  0  0  0  0  0  0
    0.9689    2.1190    0.9574 C   0  0  0  0  0  0  0  0  0  0  0  0
    2.2982    2.3868    1.3528 C   0  0  0  0  0  0  0  0  0  0  0  0
    1.8192    1.0075    0.7853 C   0  0  0  0  0  0  0  0  0  0  0  0
    2.2855    0.5445   -0.5600 C   0  0  0  0  0  0  0  0  0  0  0  0
    1.2908   -0.4045   -1.2339 C   0  0  0  0  0  0  0  0  0  0  0  0
    1.2001   -1.7811   -0.5646 C   0  0  0  0  0  0  0  0  0  0  0  0
    0.0128   -2.6057   -1.0730 C   0  0  0  0  0  0  0  0  0  0  0  0
   -1.0084   -2.9526    0.8109 H   0  0  0  0  0  0  0  0  0  0  0  0
   -1.9572   -3.2772   -0.6260 H   0  0  0  0  0  0  0  0  0  0  0  0
   -1.7705   -0.6213   -0.9956 H   0  0  0  0  0  0  0  0  0  0  0  0
   -3.0305   -1.3873   -0.0585 H   0  0  0  0  0  0  0  0  0  0  0  0
   -1.9763   -0.9869    2.0430 H   0  0  0  0  0  0  0  0  0  0  0  0
   -0.4980   -0.4001    1.3205 H   0  0  0  0  0  0  0  0  0  0  0  0
   -2.1206    1.3578    2.2495 H   0  0  0  0  0  0  0  0  0  0  0  0
   -3.2209    0.9331    0.9482 H   0  0  0  0  0  0  0  0  0  0  0  0
   -2.1737    2.7891    0.0705 H   0  0  0  0  0  0  0  0  0  0  0  0
   -1.2332    1.5403   -0.6862 H   0  0  0  0  0  0  0  0  0  0  0  0
   -0.3690    3.6688    1.1925 H   0  0  0  0  0  0  0  0  0  0  0  0
    2.8749    3.0415    0.7144 H   0  0  0  0  0  0  0  0  0  0  0  0
    2.4878    2.4630    2.4145 H   0  0  0  0  0  0  0  0  0  0  0  0
    1.7505    0.2047    1.5086 H   0  0  0  0  0  0  0  0  0  0  0  0
    2.4465    1.4050   -1.2219 H   0  0  0  0  0  0  0  0  0  0  0  0
    3.2569    0.0476   -0.4519 H   0  0  0  0  0  0  0  0  0  0  0  0
    1.6016   -0.5498   -2.2763 H   0  0  0  0  0  0  0  0  0  0  0  0
    0.3102    0.0705   -1.2722 H   0  0  0  0  0  0  0  0  0  0  0  0
    1.1652   -1.7118    0.5258 H   0  0  0  0  0  0  0  0  0  0  0  0
    2.1255   -2.3221   -0.8017 H   0  0  0  0  0  0  0  0  0  0  0  0
   -0.2443   -2.3229   -2.1010 H   0  0  0  0  0  0  0  0  0  0  0  0
    0.3329   -3.6550   -1.1185 H   0  0  0  0  0  0  0  0  0  0  0  0
  1  2  1  0
  2  3  1  0
  3  4  1  0
  4  5  1  0
  5  6  1  0
  6  7  2  0
  7  8  1  0
  8  9  1  0
  9 10  1  0
 10 11  1  0
 11 12  1  0
 12 13  1  0
 13  1  1  0
  9  7  1  0
  1 14  1  0
  1 15  1  0
  2 16  1  0
  2 17  1  0
  3 18  1  0
  3 19  1  0
  4 20  1  0
  4 21  1  0
  5 22  1  0
  5 23  1  0
  6 24  1  0
  8 25  1  0
  8 26  1  0
  9 27  1  0
 10 28  1  0
 10 29  1  0
 11 30  1  0
 11 31  1  0
 12 32  1  0
 12 33  1  0
 13 34  1  0
 13 35  1  0
M  END
$$$$
