
     RDKit          3D

 51 53  0  0  0  0  0  0  0  0999 V2000
   -9.0674    0.0724    0.3794 C   0  0  0  0  0  0  0  0  0  0  0  0
   -7.7210   -0.5361    0.3068 C   0  0  0  0  0  0  0  0  0  0  0  0
   -7.1447   -1.0277    1.4104 N   0  0  0  0  0  0  0  0  0  0  0  0
   -5.9164   -1.5185    1.0059 O   0  0  0  0  0  0  0  0  0  0  0  0
   -5.7638   -1.3117   -0.3298 C   0  0  0  0  0  0  0  0  0  0  0  0
   -6.8866   -0.6935   -0.8221 C   0  0  0  0  0  0  0  0  0  0  0  0
   -4.4921   -1.7767   -0.9322 C   0  0  0  0  0  0  0  0  0  0  0  0
   -3.2996   -0.8890   -0.5620 C   0  0  0  0  0  0  0  0  0  0  0  0
   -3.3890    0.5136   -1.1688 C   0  0  0  0  0  0  0  0  0  0  0  0
   -2.1126    1.3490   -1.0062 C   0  0  0  0  0  0  0  0  0  0  0  0
   -1.7510    1.6839    0.4459 C   0  0  0  0  0  0  0  0  0  0  0  0
   -0.7273    0.7442    1.0878 C   0  0  0  0  0  0  0  0  0  0  0  0
    0.6843    0.9057    0.5225 C   0  0  0  0  0  0  0  0  0  0  0  0
    1.5455    0.0253    1.2468 O   0  0  0  0  0  0  0  0  0  0  0  0
    2.8685    0.0221    0.9023 C   0  0  0  0  0  0  0  0  0  0  0  0
    3.4596    0.7976   -0.0960 C   0  0  0  0  0  0  0  0  0  0  0  0
    4.8339    0.6953   -0.3473 C   0  0  0  0  0  0  0  0  0  0  0  0
    5.6261   -0.1843    0.3993 C   0  0  0  0  0  0  0  0  0  0  0  0
    5.0334   -0.9606    1.3995 C   0  0  0  0  0  0  0  0  0  0  0  0
    3.6620   -0.8551    1.6462 C   0  0  0  0  0  0  0  0  0  0  0  0
    7.0745   -0.3145    0.1576 C   0  0  0  0  0  0  0  0  0  0  0  0
    7.8855   -1.1002    0.7942 N   0  0  0  0  0  0  0  0  0  0  0  0
    9.1681   -0.8882    0.1134 C   0  0  0  0  0  0  0  0  0  0  0  0
    8.9660    0.3485   -0.7311 C   0  0  0  0  0  0  0  0  0  0  0  0
    7.5565    0.4838   -0.8260 O   0  0  0  0  0  0  0  0  0  0  0  0
   -9.3905    0.4342   -0.6022 H   0  0  0  0  0  0  0  0  0  0  0  0
   -9.0694    0.9221    1.0700 H   0  0  0  0  0  0  0  0  0  0  0  0
   -9.8028   -0.6596    0.7287 H   0  0  0  0  0  0  0  0  0  0  0  0
   -7.0755   -0.3976   -1.8429 H   0  0  0  0  0  0  0  0  0  0  0  0
   -4.5932   -1.8296   -2.0229 H   0  0  0  0  0  0  0  0  0  0  0  0
   -4.2930   -2.7989   -0.5881 H   0  0  0  0  0  0  0  0  0  0  0  0
   -3.2240   -0.8178    0.5291 H   0  0  0  0  0  0  0  0  0  0  0  0
   -2.3848   -1.3760   -0.9210 H   0  0  0  0  0  0  0  0  0  0  0  0
   -3.6008    0.4273   -2.2420 H   0  0  0  0  0  0  0  0  0  0  0  0
   -4.2309    1.0600   -0.7271 H   0  0  0  0  0  0  0  0  0  0  0  0
   -2.2852    2.2969   -1.5335 H   0  0  0  0  0  0  0  0  0  0  0  0
   -1.2825    0.8598   -1.5260 H   0  0  0  0  0  0  0  0  0  0  0  0
   -1.3443    2.7029    0.4775 H   0  0  0  0  0  0  0  0  0  0  0  0
   -2.6593    1.7010    1.0604 H   0  0  0  0  0  0  0  0  0  0  0  0
   -1.0366   -0.3023    1.0004 H   0  0  0  0  0  0  0  0  0  0  0  0
   -0.6920    0.9473    2.1661 H   0  0  0  0  0  0  0  0  0  0  0  0
    0.6980    0.6403   -0.5399 H   0  0  0  0  0  0  0  0  0  0  0  0
    1.0129    1.9437    0.6549 H   0  0  0  0  0  0  0  0  0  0  0  0
    2.8833    1.4920   -0.6982 H   0  0  0  0  0  0  0  0  0  0  0  0
    5.2734    1.3087   -1.1300 H   0  0  0  0  0  0  0  0  0  0  0  0
    5.6327   -1.6499    1.9906 H   0  0  0  0  0  0  0  0  0  0  0  0
    3.2086   -1.4626    2.4260 H   0  0  0  0  0  0  0  0  0  0  0  0
    9.9857   -0.7572    0.8288 H   0  0  0  0  0  0  0  0  0  0  0  0
    9.3961   -1.7601   -0.5098 H   0  0  0  0  0  0  0  0  0  0  0  0
    9.4064    0.2453   -1.7272 H   0  0  0  0  0  0  0  0  0  0  0  0
    9.3752    1.2448   -0.2529 H   0  0  0  0  0  0  0  0  0  0  0  0
  1  2  1  0
  2  3  2  0
  3  4  1  0
  4  5  1  0
  5  6  2  0
  5  7  1  0
  7  8  1  0
  8  9  1  0
  9 10  1  0
 10 11  1  0
 11 12  1  0
 12 13  1  0
 13 14  1  0
 14 15  1  0
 15 16  2  0
 16 17  1  0
 17 18  2  0
 18 19  1  0
 19 20  2  0
 18 21  1  0
 21 22  2  0
 22 23  1  0
 23 24  1  0
 24 25  1  0
  6  2  1  0
 20 15  1  0
 25 21  1  0
  1 26  1  0
  1 27  1  0
  1 28  1  0
  6 29  1  0
  7 30  1  0
  7 31  1  0
  8 32  1  0
  8 33  1  0
  9 34  1  0
  9 35  1  0
 10 36  1  0
 10 37  1  0
 11 38  1  0
 11 39  1  0
 12 40  1  0
 12 41  1  0
 13 42  1  0
 13 43  1  0
 16 44  1  0
 17 45  1  0
 19 46  1  0
 20 47  1  0
 23 48  1  0
 23 49  1  0
 24 50  1  0
 24 51  1  0
M  END
$$$$
