
     RDKit          3D

 39 40  0  0  0  0  0  0  0  0999 V2000
   -1.9239    3.7058    0.2042 C   0  0  0  0  0  0  0  0  0  0  0  0
   -2.5577    2.4733    0.5270 O   0  0  0  0  0  0  0  0  0  0  0  0
   -1.9218    1.3051    0.1800 C   0  0  0  0  0  0  0  0  0  0  0  0
   -0.7708    1.2480   -0.6127 C   0  0  0  0  0  0  0  0  0  0  0  0
   -0.1270    0.0191   -0.8529 C   0  0  0  0  0  0  0  0  0  0  0  0
   -0.6893   -1.1584   -0.3591 C   0  0  0  0  0  0  0  0  0  0  0  0
   -1.8659   -1.1262    0.4017 C   0  0  0  0  0  0  0  0  0  0  0  0
   -2.4851    0.1095    0.6462 C   0  0  0  0  0  0  0  0  0  0  0  0
   -3.6146    0.1373    1.4376 O   0  0  0  0  0  0  0  0  0  0  0  0
   -4.7877    0.2057    0.6160 C   0  0  0  0  0  0  0  0  0  0  0  0
   -2.4885   -2.2276    0.9306 O   0  0  0  0  0  0  0  0  0  0  0  0
   -1.9839   -3.5086    0.5655 C   0  0  0  0  0  0  0  0  0  0  0  0
    1.1524   -0.0288   -1.6643 C   0  0  0  0  0  0  0  0  0  0  0  0
    2.4053   -0.2336   -0.8710 C   0  0  0  0  0  0  0  0  0  0  0  0
    3.1053   -1.4116   -0.9956 C   0  0  0  0  0  0  0  0  0  0  0  0
    4.2830   -1.6499   -0.4099 N   0  0  0  0  0  0  0  0  0  0  0  0
    4.7500   -0.7008    0.4005 C   0  0  0  0  0  0  0  0  0  0  0  0
    4.1274    0.4664    0.6404 N   0  0  0  0  0  0  0  0  0  0  0  0
    2.9890    0.7167   -0.0307 C   0  0  0  0  0  0  0  0  0  0  0  0
    2.4253    1.9904    0.1827 N   0  0  0  0  0  0  0  0  0  0  0  0
    5.9296   -0.9923    1.0614 N   0  0  0  0  0  0  0  0  0  0  0  0
   -1.9163    3.8711   -0.8809 H   0  0  0  0  0  0  0  0  0  0  0  0
   -2.4993    4.5277    0.6534 H   0  0  0  0  0  0  0  0  0  0  0  0
   -0.9082    3.7615    0.6137 H   0  0  0  0  0  0  0  0  0  0  0  0
   -0.3360    2.1581   -1.0017 H   0  0  0  0  0  0  0  0  0  0  0  0
   -0.1744   -2.0949   -0.5276 H   0  0  0  0  0  0  0  0  0  0  0  0
   -4.8228   -0.6004   -0.1272 H   0  0  0  0  0  0  0  0  0  0  0  0
   -5.6651    0.1011    1.2694 H   0  0  0  0  0  0  0  0  0  0  0  0
   -4.8698    1.1916    0.1146 H   0  0  0  0  0  0  0  0  0  0  0  0
   -2.6131   -4.2741    1.0479 H   0  0  0  0  0  0  0  0  0  0  0  0
   -2.0431   -3.6663   -0.5164 H   0  0  0  0  0  0  0  0  0  0  0  0
   -0.9606   -3.6560    0.9438 H   0  0  0  0  0  0  0  0  0  0  0  0
    1.2510    0.8921   -2.2658 H   0  0  0  0  0  0  0  0  0  0  0  0
    1.0461   -0.8255   -2.4193 H   0  0  0  0  0  0  0  0  0  0  0  0
    2.7725   -2.2134   -1.6301 H   0  0  0  0  0  0  0  0  0  0  0  0
    1.5002    1.8426    0.5837 H   0  0  0  0  0  0  0  0  0  0  0  0
    2.3344    2.4941   -0.6906 H   0  0  0  0  0  0  0  0  0  0  0  0
    5.7513   -0.9226    2.0798 H   0  0  0  0  0  0  0  0  0  0  0  0
    6.2020   -1.9264    0.7554 H   0  0  0  0  0  0  0  0  0  0  0  0
  1  2  1  0
  2  3  1  0
  3  4  2  0
  4  5  1  0
  5  6  2  0
  6  7  1  0
  7  8  2  0
  8  9  1  0
  9 10  1  0
  7 11  1  0
 11 12  1  0
  5 13  1  0
 13 14  1  0
 14 15  2  0
 15 16  1  0
 16 17  2  0
 17 18  1  0
 18 19  2  0
 19 20  1  0
 17 21  1  0
  8  3  1  0
 19 14  1  0
  1 22  1  0
  1 23  1  0
  1 24  1  0
  4 25  1  0
  6 26  1  0
 10 27  1  0
 10 28  1  0
 10 29  1  0
 12 30  1  0
 12 31  1  0
 12 32  1  0
 13 33  1  0
 13 34  1  0
 15 35  1  0
 20 36  1  0
 20 37  1  0
 21 38  1  0
 21 39  1  0
M  END
$$$$
