
     RDKit          3D

 46 47  0  0  0  0  0  0  0  0999 V2000
    6.0064   -1.2745   -0.6370 C   0  0  0  0  0  0  0  0  0  0  0  0
    4.9356   -0.3170   -1.1418 C   0  0  0  0  0  0  0  0  0  0  0  0
    3.6621   -0.3456   -0.2835 C   0  0  0  0  0  0  0  0  0  0  0  0
    2.6037    0.5917   -0.8871 C   0  0  0  0  0  0  0  0  0  0  0  0
    1.2850    0.5679   -0.1055 C   0  0  0  0  0  0  0  0  0  0  0  0
    0.2311    1.4541   -0.7737 C   0  0  0  0  0  0  0  0  0  0  0  0
   -1.0643    1.5838    0.0367 C   0  0  0  0  0  0  0  0  0  0  0  0
   -1.8196    0.2691    0.2550 C   0  0  0  0  0  0  0  0  0  0  0  0
   -2.2598   -0.4334   -1.0336 C   0  0  0  0  0  0  0  0  0  0  0  0
   -3.4805   -1.2789   -0.6558 C   0  0  0  0  0  0  0  0  0  0  0  0
   -3.8253   -0.9216    0.7973 C   0  0  0  0  0  0  0  0  0  0  0  0
   -3.1183    0.4120    1.0550 C   0  0  0  0  0  0  0  0  0  0  0  0
   -4.1052    1.4839    0.5797 C   0  0  0  0  0  0  0  0  0  0  0  0
   -5.4370    0.8050    0.7669 C   0  0  0  0  0  0  0  0  0  0  0  0
   -6.5124    1.3860    0.6883 O   0  0  0  0  0  0  0  0  0  0  0  0
   -5.3029   -0.6659    1.0611 C   0  0  0  0  0  0  0  0  0  0  0  0
    3.9854    0.1201    1.0309 O   0  0  0  0  0  0  0  0  0  0  0  0
    3.7417   -0.8526    2.0386 C   0  0  0  0  0  0  0  0  0  0  0  0
    5.6272   -2.3005   -0.5965 H   0  0  0  0  0  0  0  0  0  0  0  0
    6.8715   -1.2588   -1.3076 H   0  0  0  0  0  0  0  0  0  0  0  0
    6.3537   -0.9937    0.3620 H   0  0  0  0  0  0  0  0  0  0  0  0
    4.6898   -0.5779   -2.1778 H   0  0  0  0  0  0  0  0  0  0  0  0
    5.3585    0.6951   -1.1473 H   0  0  0  0  0  0  0  0  0  0  0  0
    3.2651   -1.3694   -0.2579 H   0  0  0  0  0  0  0  0  0  0  0  0
    2.9859    1.6205   -0.8933 H   0  0  0  0  0  0  0  0  0  0  0  0
    2.4125    0.3046   -1.9284 H   0  0  0  0  0  0  0  0  0  0  0  0
    0.9247   -0.4650   -0.0478 H   0  0  0  0  0  0  0  0  0  0  0  0
    1.4529    0.9155    0.9203 H   0  0  0  0  0  0  0  0  0  0  0  0
    0.6456    2.4609   -0.9103 H   0  0  0  0  0  0  0  0  0  0  0  0
    0.0081    1.0723   -1.7769 H   0  0  0  0  0  0  0  0  0  0  0  0
   -0.8324    2.0278    1.0130 H   0  0  0  0  0  0  0  0  0  0  0  0
   -1.7075    2.3038   -0.4829 H   0  0  0  0  0  0  0  0  0  0  0  0
   -1.1735   -0.4220    0.8131 H   0  0  0  0  0  0  0  0  0  0  0  0
   -1.4584   -1.0542   -1.4478 H   0  0  0  0  0  0  0  0  0  0  0  0
   -2.5413    0.2925   -1.8057 H   0  0  0  0  0  0  0  0  0  0  0  0
   -4.3076   -1.0743   -1.3450 H   0  0  0  0  0  0  0  0  0  0  0  0
   -3.2535   -2.3477   -0.7384 H   0  0  0  0  0  0  0  0  0  0  0  0
   -3.4430   -1.7086    1.4586 H   0  0  0  0  0  0  0  0  0  0  0  0
   -2.9135    0.5468    2.1243 H   0  0  0  0  0  0  0  0  0  0  0  0
   -3.9941    1.7399   -0.4772 H   0  0  0  0  0  0  0  0  0  0  0  0
   -4.0406    2.3840    1.1961 H   0  0  0  0  0  0  0  0  0  0  0  0
   -5.9584   -1.2610    0.4214 H   0  0  0  0  0  0  0  0  0  0  0  0
   -5.5459   -0.8270    2.1158 H   0  0  0  0  0  0  0  0  0  0  0  0
    4.3512   -1.7450    1.8684 H   0  0  0  0  0  0  0  0  0  0  0  0
    2.6813   -1.1209    2.0647 H   0  0  0  0  0  0  0  0  0  0  0  0
    4.0160   -0.4219    3.0052 H   0  0  0  0  0  0  0  0  0  0  0  0
  1  2  1  0
  2  3  1  0
  3  4  1  0
  4  5  1  0
  5  6  1  0
  6  7  1  0
  7  8  1  0
  8  9  1  0
  9 10  1  0
 10 11  1  0
 11 12  1  0
 12 13  1  0
 13 14  1  0
 14 15  2  0
 14 16  1  0
  3 17  1  0
 17 18  1  0
 12  8  1  0
 16 11  1  0
  1 19  1  0
  1 20  1  0
  1 21  1  0
  2 22  1  0
  2 23  1  0
  3 24  1  0
  4 25  1  0
  4 26  1  0
  5 27  1  0
  5 28  1  0
  6 29  1  0
  6 30  1  0
  7 31  1  0
  7 32  1  0
  8 33  1  0
  9 34  1  0
  9 35  1  0
 10 36  1  0
 10 37  1  0
 11 38  1  0
 12 39  1  0
 13 40  1  0
 13 41  1  0
 16 42  1  0
 16 43  1  0
 18 44  1  0
 18 45  1  0
 18 46  1  0
M  END
$$$$
