
     RDKit          3D

 52 54  0  0  0  0  0  0  0  0999 V2000
   -0.7686    0.1013   -3.4675 C   0  0  0  0  0  0  0  0  0  0  0  0
   -0.3122    0.3061   -2.0661 C   0  0  0  0  0  0  0  0  0  0  0  0
   -1.0953    0.5999   -0.9560 C   0  0  0  0  0  0  0  0  0  0  0  0
   -0.0846    0.7165    0.4338 S   0  0  0  0  0  0  0  0  0  0  0  0
    1.2740    0.3801   -0.5376 C   0  0  0  0  0  0  0  0  0  0  0  0
    1.0454    0.1939   -1.8092 N   0  0  0  0  0  0  0  0  0  0  0  0
    2.4545    0.3661    0.1495 N   0  0  0  0  0  0  0  0  0  0  0  0
    3.6440    0.0157   -0.4292 C   0  0  0  0  0  0  0  0  0  0  0  0
    3.7848   -0.3967   -1.5787 O   0  0  0  0  0  0  0  0  0  0  0  0
    4.7407    0.1306    0.4124 N   0  0  0  0  0  0  0  0  0  0  0  0
    4.8077    0.9404    1.6215 C   0  0  0  0  0  0  0  0  0  0  0  0
    6.2186    1.5024    1.6194 C   0  0  0  0  0  0  0  0  0  0  0  0
    7.0280    0.3692    1.0106 C   0  0  0  0  0  0  0  0  0  0  0  0
    6.0959   -0.2036   -0.0662 C   0  0  1  0  0  0  0  0  0  0  0  0
    6.3094   -1.7225   -0.2451 C   0  0  0  0  0  0  0  0  0  0  0  0
    6.9969   -2.4222    0.4934 O   0  0  0  0  0  0  0  0  0  0  0  0
    5.6802   -2.2761   -1.3245 N   0  0  0  0  0  0  0  0  0  0  0  0
   -2.5361    0.8276   -0.8415 C   0  0  0  0  0  0  0  0  0  0  0  0
   -3.3167    0.0896    0.0583 C   0  0  0  0  0  0  0  0  0  0  0  0
   -4.6910    0.3252    0.1465 C   0  0  0  0  0  0  0  0  0  0  0  0
   -5.2884    1.2517   -0.6430 N   0  0  0  0  0  0  0  0  0  0  0  0
   -4.5237    1.9561   -1.5053 C   0  0  0  0  0  0  0  0  0  0  0  0
   -3.1611    1.7823   -1.6396 C   0  0  0  0  0  0  0  0  0  0  0  0
   -5.5860   -0.4671    1.1033 C   0  0  0  0  0  0  0  0  0  0  0  0
   -5.4896   -1.9729    0.7876 C   0  0  0  0  0  0  0  0  0  0  0  0
   -7.0694   -0.0544    0.9589 C   0  0  0  0  0  0  0  0  0  0  0  0
   -5.1627   -0.2084    2.5536 C   0  0  0  0  0  0  0  0  0  0  0  0
   -3.8990   -0.6292    2.8011 F   0  0  0  0  0  0  0  0  0  0  0  0
   -5.9639   -0.8754    3.4213 F   0  0  0  0  0  0  0  0  0  0  0  0
   -5.2243    1.1008    2.8851 F   0  0  0  0  0  0  0  0  0  0  0  0
   -1.7074   -0.4609   -3.4979 H   0  0  0  0  0  0  0  0  0  0  0  0
   -0.9205    1.0662   -3.9621 H   0  0  0  0  0  0  0  0  0  0  0  0
   -0.0253   -0.4634   -4.0396 H   0  0  0  0  0  0  0  0  0  0  0  0
    2.3936    0.4808    1.1450 H   0  0  0  0  0  0  0  0  0  0  0  0
    4.0575    1.7365    1.6347 H   0  0  0  0  0  0  0  0  0  0  0  0
    4.6457    0.2727    2.4749 H   0  0  0  0  0  0  0  0  0  0  0  0
    6.2737    2.3861    0.9726 H   0  0  0  0  0  0  0  0  0  0  0  0
    6.5617    1.7844    2.6187 H   0  0  0  0  0  0  0  0  0  0  0  0
    7.2574   -0.3643    1.7922 H   0  0  0  0  0  0  0  0  0  0  0  0
    7.9786    0.7122    0.5906 H   0  0  0  0  0  0  0  0  0  0  0  0
    6.2623    0.3004   -1.0262 H   0  0  0  0  0  0  0  0  0  0  0  0
    5.6937   -3.2816   -1.4121 H   0  0  0  0  0  0  0  0  0  0  0  0
    4.8977   -1.7743   -1.7509 H   0  0  0  0  0  0  0  0  0  0  0  0
   -2.8448   -0.6687    0.6779 H   0  0  0  0  0  0  0  0  0  0  0  0
   -5.0579    2.6886   -2.1048 H   0  0  0  0  0  0  0  0  0  0  0  0
   -2.6049    2.3886   -2.3471 H   0  0  0  0  0  0  0  0  0  0  0  0
   -4.4791   -2.3645    0.9483 H   0  0  0  0  0  0  0  0  0  0  0  0
   -6.1658   -2.5551    1.4243 H   0  0  0  0  0  0  0  0  0  0  0  0
   -5.7587   -2.1765   -0.2558 H   0  0  0  0  0  0  0  0  0  0  0  0
   -7.4353   -0.2185   -0.0615 H   0  0  0  0  0  0  0  0  0  0  0  0
   -7.7108   -0.6359    1.6312 H   0  0  0  0  0  0  0  0  0  0  0  0
   -7.2188    1.0042    1.2009 H   0  0  0  0  0  0  0  0  0  0  0  0
  1  2  1  0
  2  3  2  0
  3  4  1  0
  4  5  1  0
  5  6  2  0
  5  7  1  0
  7  8  1  0
  8  9  2  0
  8 10  1  0
 10 11  1  0
 11 12  1  0
 12 13  1  0
 13 14  1  0
 14 15  1  0
 15 16  2  0
 15 17  1  0
  3 18  1  0
 18 19  2  0
 19 20  1  0
 20 21  2  0
 21 22  1  0
 22 23  2  0
 20 24  1  0
 24 25  1  0
 24 26  1  0
 24 27  1  0
 27 28  1  0
 27 29  1  0
 27 30  1  0
  6  2  1  0
 14 10  1  0
 23 18  1  0
  1 31  1  0
  1 32  1  0
  1 33  1  0
  7 34  1  0
 11 35  1  0
 11 36  1  0
 12 37  1  0
 12 38  1  0
 13 39  1  0
 13 40  1  0
 14 41  1  6
 17 42  1  0
 17 43  1  0
 19 44  1  0
 22 45  1  0
 23 46  1  0
 25 47  1  0
 25 48  1  0
 25 49  1  0
 26 50  1  0
 26 51  1  0
 26 52  1  0
M  END
$$$$
