
     RDKit          3D

 65 68  0  0  0  0  0  0  0  0999 V2000
    9.0400    0.0951   -0.8341 C   0  0  0  0  0  0  0  0  0  0  0  0
    7.9531   -0.8669   -0.6441 N   0  0  0  0  0  0  0  0  0  0  0  0
    7.4182   -0.7959    0.7347 C   0  0  0  0  0  0  0  0  0  0  0  0
    6.1522    0.0814    0.9474 C   0  0  0  0  0  0  0  0  0  0  0  0
    6.0656    1.1808   -0.0133 N   0  0  0  0  0  0  0  0  0  0  0  0
    6.0557    0.6856   -1.3966 C   0  0  0  0  0  0  0  0  0  0  0  0
    6.8639   -0.6247   -1.6075 C   0  0  0  0  0  0  0  0  0  0  0  0
    5.0530    2.1953    0.2843 C   0  0  0  0  0  0  0  0  0  0  0  0
    3.6087    1.7408    0.2860 C   0  0  0  0  0  0  0  0  0  0  0  0
    2.8133    1.8696   -0.8569 C   0  0  0  0  0  0  0  0  0  0  0  0
    1.4837    1.4322   -0.8521 C   0  0  0  0  0  0  0  0  0  0  0  0
    0.9060    0.8499    0.2873 C   0  0  0  0  0  0  0  0  0  0  0  0
    1.6994    0.7515    1.4323 C   0  0  0  0  0  0  0  0  0  0  0  0
    3.0301    1.1896    1.4351 C   0  0  0  0  0  0  0  0  0  0  0  0
   -0.4244    0.4237    0.2178 N   0  0  0  0  0  0  0  0  0  0  0  0
   -1.2638   -0.2652    1.0868 C   0  0  0  0  0  0  0  0  0  0  0  0
   -0.9139   -0.5442    2.3493 N   0  0  0  0  0  0  0  0  0  0  0  0
   -1.7972   -1.2379    3.0943 C   0  0  0  0  0  0  0  0  0  0  0  0
   -3.0169   -1.6640    2.6287 C   0  0  0  0  0  0  0  0  0  0  0  0
   -3.3144   -1.3325    1.3149 C   0  0  0  0  0  0  0  0  0  0  0  0
   -2.4414   -0.6333    0.5542 N   0  0  0  0  0  0  0  0  0  0  0  0
   -4.5322   -1.7687    0.7423 N   0  0  0  0  0  0  0  0  0  0  0  0
   -4.9417   -1.7143   -0.6065 C   0  0  0  0  0  0  0  0  0  0  0  0
   -4.0294   -2.0369   -1.6268 C   0  0  0  0  0  0  0  0  0  0  0  0
   -4.3964   -2.0187   -2.9760 C   0  0  0  0  0  0  0  0  0  0  0  0
   -5.6946   -1.6818   -3.3411 C   0  0  0  0  0  0  0  0  0  0  0  0
   -6.6188   -1.3446   -2.3564 C   0  0  0  0  0  0  0  0  0  0  0  0
   -6.2377   -1.3338   -1.0023 C   0  0  0  0  0  0  0  0  0  0  0  0
   -7.4705   -0.8437    0.1884 S   0  0  0  0  0  6  0  0  0  0  0  0
   -7.0466   -1.3364    1.4861 O   0  0  0  0  0  0  0  0  0  0  0  0
   -8.7670   -1.1997   -0.3493 O   0  0  0  0  0  0  0  0  0  0  0  0
   -7.3454    0.8543    0.2124 N   0  0  0  0  0  0  0  0  0  0  0  0
   -6.1085    1.4228    0.7806 C   0  0  0  0  0  0  0  0  0  0  0  0
   -7.8168    1.5812   -0.9786 C   0  0  0  0  0  0  0  0  0  0  0  0
   -4.0798   -2.5460    3.6491 Cl  0  0  0  0  0  0  0  0  0  0  0  0
    9.4208    0.0439   -1.8603 H   0  0  0  0  0  0  0  0  0  0  0  0
    9.8833   -0.1540   -0.1801 H   0  0  0  0  0  0  0  0  0  0  0  0
    8.7474    1.1302   -0.6294 H   0  0  0  0  0  0  0  0  0  0  0  0
    7.1651   -1.8193    1.0414 H   0  0  0  0  0  0  0  0  0  0  0  0
    8.2038   -0.4715    1.4300 H   0  0  0  0  0  0  0  0  0  0  0  0
    5.2680   -0.5635    0.8656 H   0  0  0  0  0  0  0  0  0  0  0  0
    6.1802    0.4688    1.9728 H   0  0  0  0  0  0  0  0  0  0  0  0
    6.4822    1.4674   -2.0367 H   0  0  0  0  0  0  0  0  0  0  0  0
    5.0395    0.4913   -1.7548 H   0  0  0  0  0  0  0  0  0  0  0  0
    6.1682   -1.4720   -1.5310 H   0  0  0  0  0  0  0  0  0  0  0  0
    7.2476   -0.6587   -2.6348 H   0  0  0  0  0  0  0  0  0  0  0  0
    5.1640    3.0283   -0.4229 H   0  0  0  0  0  0  0  0  0  0  0  0
    5.2759    2.6451    1.2611 H   0  0  0  0  0  0  0  0  0  0  0  0
    3.2238    2.3070   -1.7643 H   0  0  0  0  0  0  0  0  0  0  0  0
    0.9006    1.5459   -1.7631 H   0  0  0  0  0  0  0  0  0  0  0  0
    1.3047    0.3296    2.3515 H   0  0  0  0  0  0  0  0  0  0  0  0
    3.6124    1.0909    2.3484 H   0  0  0  0  0  0  0  0  0  0  0  0
   -0.8720    0.4841   -0.6857 H   0  0  0  0  0  0  0  0  0  0  0  0
   -1.4731   -1.4486    4.1098 H   0  0  0  0  0  0  0  0  0  0  0  0
   -5.3019   -1.7285    1.4208 H   0  0  0  0  0  0  0  0  0  0  0  0
   -3.0140   -2.3357   -1.3721 H   0  0  0  0  0  0  0  0  0  0  0  0
   -3.6667   -2.2861   -3.7362 H   0  0  0  0  0  0  0  0  0  0  0  0
   -5.9855   -1.6820   -4.3882 H   0  0  0  0  0  0  0  0  0  0  0  0
   -7.6356   -1.0876   -2.6481 H   0  0  0  0  0  0  0  0  0  0  0  0
   -5.2687    1.3110    0.0896 H   0  0  0  0  0  0  0  0  0  0  0  0
   -5.8624    0.9545    1.7379 H   0  0  0  0  0  0  0  0  0  0  0  0
   -6.2518    2.4901    0.9796 H   0  0  0  0  0  0  0  0  0  0  0  0
   -8.7405    1.1484   -1.3732 H   0  0  0  0  0  0  0  0  0  0  0  0
   -7.0547    1.5893   -1.7631 H   0  0  0  0  0  0  0  0  0  0  0  0
   -8.0460    2.6170   -0.7044 H   0  0  0  0  0  0  0  0  0  0  0  0
  1  2  1  0
  2  3  1  0
  3  4  1  0
  4  5  1  0
  5  6  1  0
  6  7  1  0
  5  8  1  0
  8  9  1  0
  9 10  2  0
 10 11  1  0
 11 12  2  0
 12 13  1  0
 13 14  2  0
 12 15  1  0
 15 16  1  0
 16 17  2  0
 17 18  1  0
 18 19  2  0
 19 20  1  0
 20 21  2  0
 20 22  1  0
 22 23  1  0
 23 24  2  0
 24 25  1  0
 25 26  2  0
 26 27  1  0
 27 28  2  0
 28 29  1  0
 29 30  2  0
 29 31  2  0
 29 32  1  0
 32 33  1  0
 32 34  1  0
 19 35  1  0
  7  2  1  0
 14  9  1  0
 21 16  1  0
 28 23  1  0
  1 36  1  0
  1 37  1  0
  1 38  1  0
  3 39  1  0
  3 40  1  0
  4 41  1  0
  4 42  1  0
  6 43  1  0
  6 44  1  0
  7 45  1  0
  7 46  1  0
  8 47  1  0
  8 48  1  0
 10 49  1  0
 11 50  1  0
 13 51  1  0
 14 52  1  0
 15 53  1  0
 18 54  1  0
 22 55  1  0
 24 56  1  0
 25 57  1  0
 26 58  1  0
 27 59  1  0
 33 60  1  0
 33 61  1  0
 33 62  1  0
 34 63  1  0
 34 64  1  0
 34 65  1  0
M  END
$$$$
