
     RDKit          3D

 60 63  0  0  0  0  0  0  0  0999 V2000
    8.1122   -0.3745   -1.3719 C   0  0  0  0  0  0  0  0  0  0  0  0
    6.6094   -0.3381   -1.1173 C   0  0  0  0  0  0  0  0  0  0  0  0
    6.2474    0.4056    0.1045 N   0  0  0  0  0  0  0  0  0  0  0  0
    6.6159   -0.3420    1.3218 C   0  0  0  0  0  0  0  0  0  0  0  0
    6.3385    0.4044    2.6273 C   0  0  0  0  0  0  0  0  0  0  0  0
    4.8198    0.7914    0.0751 C   0  0  0  0  0  0  0  0  0  0  0  0
    3.7812   -0.3429    0.1183 C   0  0  0  0  0  0  0  0  0  0  0  0
    2.4218    0.1570    0.1090 N   0  0  0  0  0  0  0  0  0  0  0  0
    1.3487   -0.6741    0.3439 C   0  0  0  0  0  0  0  0  0  0  0  0
    1.5110   -1.8712    0.6026 O   0  0  0  0  0  0  0  0  0  0  0  0
    0.0136   -0.0742    0.2211 C   0  0  0  0  0  0  0  0  0  0  0  0
   -0.3572    1.2692    0.0864 C   0  0  0  0  0  0  0  0  0  0  0  0
   -1.7279    1.3248   -0.0401 N   0  0  0  0  0  0  0  0  0  0  0  0
   -2.2703    0.0802    0.0955 C   0  0  0  0  0  0  0  0  0  0  0  0
   -1.2252   -0.8077    0.2726 C   0  0  0  0  0  0  0  0  0  0  0  0
   -1.4492   -2.2640    0.5324 C   0  0  0  0  0  0  0  0  0  0  0  0
   -2.9127   -2.6666    0.2907 C   0  0  0  0  0  0  0  0  0  0  0  0
   -3.9384   -1.6205    0.7898 C   0  0  0  0  0  0  0  0  0  0  0  0
   -3.6685   -0.2428    0.1511 C   0  0  0  0  0  0  0  0  0  0  0  0
   -4.6494    0.5021   -0.4151 C   0  0  0  0  0  0  0  0  0  0  0  0
   -6.1098    0.2250   -0.4327 C   0  0  0  0  0  0  0  0  0  0  0  0
   -6.6475    1.0027   -1.4650 C   0  0  0  0  0  0  0  0  0  0  0  0
   -7.9828    0.9753   -1.8265 C   0  0  0  0  0  0  0  0  0  0  0  0
   -8.8315    0.1644   -1.0723 C   0  0  0  0  0  0  0  0  0  0  0  0
   -8.3247   -0.5475    0.0222 C   0  0  0  0  0  0  0  0  0  0  0  0
   -6.9707   -0.5146    0.3618 C   0  0  0  0  0  0  0  0  0  0  0  0
   -9.1655   -1.2742    0.7713 F   0  0  0  0  0  0  0  0  0  0  0  0
   -5.6824    1.8362   -2.0058 N   0  0  0  0  0  0  0  0  0  0  0  0
   -4.4726    1.6916   -1.3523 C   0  0  0  0  0  0  0  0  0  0  0  0
   -3.5008    2.4091   -1.5177 O   0  0  0  0  0  0  0  0  0  0  0  0
    0.4064    2.5487    0.0705 C   0  0  0  0  0  0  0  0  0  0  0  0
    8.6556   -0.9087   -0.5886 H   0  0  0  0  0  0  0  0  0  0  0  0
    8.5236    0.6368   -1.4493 H   0  0  0  0  0  0  0  0  0  0  0  0
    8.3208   -0.8917   -2.3114 H   0  0  0  0  0  0  0  0  0  0  0  0
    6.2177   -1.3618   -1.0894 H   0  0  0  0  0  0  0  0  0  0  0  0
    6.1570    0.1523   -1.9899 H   0  0  0  0  0  0  0  0  0  0  0  0
    7.6926   -0.5316    1.3124 H   0  0  0  0  0  0  0  0  0  0  0  0
    6.1326   -1.3252    1.3510 H   0  0  0  0  0  0  0  0  0  0  0  0
    5.2660    0.5259    2.8076 H   0  0  0  0  0  0  0  0  0  0  0  0
    6.8119    1.3914    2.6207 H   0  0  0  0  0  0  0  0  0  0  0  0
    6.7499   -0.1594    3.4711 H   0  0  0  0  0  0  0  0  0  0  0  0
    4.6390    1.3940   -0.8256 H   0  0  0  0  0  0  0  0  0  0  0  0
    4.6085    1.4929    0.8902 H   0  0  0  0  0  0  0  0  0  0  0  0
    3.9037   -0.9475    1.0218 H   0  0  0  0  0  0  0  0  0  0  0  0
    3.8845   -1.0050   -0.7492 H   0  0  0  0  0  0  0  0  0  0  0  0
    2.2462    1.0735   -0.2872 H   0  0  0  0  0  0  0  0  0  0  0  0
   -2.2581    2.1603   -0.2522 H   0  0  0  0  0  0  0  0  0  0  0  0
   -1.1743   -2.4868    1.5742 H   0  0  0  0  0  0  0  0  0  0  0  0
   -0.8019   -2.8678   -0.1172 H   0  0  0  0  0  0  0  0  0  0  0  0
   -3.0728   -2.8194   -0.7899 H   0  0  0  0  0  0  0  0  0  0  0  0
   -3.1124   -3.6351    0.7647 H   0  0  0  0  0  0  0  0  0  0  0  0
   -3.8770   -1.5287    1.8819 H   0  0  0  0  0  0  0  0  0  0  0  0
   -4.9199   -2.0214    0.5405 H   0  0  0  0  0  0  0  0  0  0  0  0
   -8.3649    1.5687   -2.6524 H   0  0  0  0  0  0  0  0  0  0  0  0
   -9.8871    0.1031   -1.3022 H   0  0  0  0  0  0  0  0  0  0  0  0
   -6.6438   -1.0471    1.2460 H   0  0  0  0  0  0  0  0  0  0  0  0
   -5.8380    2.5538   -2.6989 H   0  0  0  0  0  0  0  0  0  0  0  0
    0.9563    2.6581   -0.8672 H   0  0  0  0  0  0  0  0  0  0  0  0
   -0.2637    3.4163    0.1740 H   0  0  0  0  0  0  0  0  0  0  0  0
    1.1091    2.5775    0.9092 H   0  0  0  0  0  0  0  0  0  0  0  0
  1  2  1  0
  2  3  1  0
  3  4  1  0
  4  5  1  0
  3  6  1  0
  6  7  1  0
  7  8  1  0
  8  9  1  0
  9 10  2  0
  9 11  1  0
 11 12  2  0
 12 13  1  0
 13 14  1  0
 14 15  2  0
 15 16  1  0
 16 17  1  0
 17 18  1  0
 18 19  1  0
 19 20  2  0
 20 21  1  0
 21 22  1  0
 22 23  2  0
 23 24  1  0
 24 25  2  0
 25 26  1  0
 25 27  1  0
 22 28  1  0
 28 29  1  0
 29 30  2  0
 12 31  1  0
 15 11  1  0
 19 14  1  0
 29 20  1  0
 26 21  2  0
  1 32  1  0
  1 33  1  0
  1 34  1  0
  2 35  1  0
  2 36  1  0
  4 37  1  0
  4 38  1  0
  5 39  1  0
  5 40  1  0
  5 41  1  0
  6 42  1  0
  6 43  1  0
  7 44  1  0
  7 45  1  0
  8 46  1  0
 13 47  1  0
 16 48  1  0
 16 49  1  0
 17 50  1  0
 17 51  1  0
 18 52  1  0
 18 53  1  0
 23 54  1  0
 24 55  1  0
 26 56  1  0
 28 57  1  0
 31 58  1  0
 31 59  1  0
 31 60  1  0
M  END
$$$$
