
     RDKit          3D

 59 63  0  0  0  0  0  0  0  0999 V2000
   -8.4101   -0.1604    1.4913 C   0  0  0  0  0  0  0  0  0  0  0  0
   -7.0809   -0.6906    1.2013 N   0  0  0  0  0  0  0  0  0  0  0  0
   -6.3841   -1.0550    2.4570 C   0  0  0  0  0  0  0  0  0  0  0  0
   -4.8490   -1.1517    2.3047 C   0  0  0  0  0  0  0  0  0  0  0  0
   -4.2684    0.1481    1.8809 N   0  0  0  0  0  0  0  0  0  0  0  0
   -5.2147    1.0463    1.1883 C   0  0  0  0  0  0  0  0  0  0  0  0
   -6.2749    0.2531    0.3933 C   0  0  0  0  0  0  0  0  0  0  0  0
   -2.9507    0.0280    1.4189 C   0  0  0  0  0  0  0  0  0  0  0  0
   -1.9484   -0.3649    2.3158 C   0  0  0  0  0  0  0  0  0  0  0  0
   -0.6210   -0.4923    1.9090 C   0  0  0  0  0  0  0  0  0  0  0  0
   -0.2672   -0.2355    0.5846 C   0  0  0  0  0  0  0  0  0  0  0  0
   -1.2305    0.1414   -0.3528 C   0  0  0  0  0  0  0  0  0  0  0  0
   -2.5640    0.2747    0.0907 C   0  0  0  0  0  0  0  0  0  0  0  0
   -0.9419    0.4216   -1.7039 N   0  0  0  0  0  0  0  0  0  0  0  0
    0.2032    0.4775   -2.4073 C   0  0  0  0  0  0  0  0  0  0  0  0
    0.2307    0.7063   -3.7216 N   0  0  0  0  0  0  0  0  0  0  0  0
    1.5525    0.6937   -4.0044 N   0  0  0  0  0  0  0  0  0  0  0  0
    2.1691    0.8815   -5.2387 C   0  0  0  0  0  0  0  0  0  0  0  0
    3.5073    0.8426   -5.3258 C   0  0  0  0  0  0  0  0  0  0  0  0
    4.2826    0.6056   -4.1177 C   0  0  0  0  0  0  0  0  0  0  0  0
    3.7039    0.4078   -2.9073 C   0  0  0  0  0  0  0  0  0  0  0  0
    2.2686    0.4592   -2.8336 C   0  0  0  0  0  0  0  0  0  0  0  0
    1.4294    0.3253   -1.8310 N   0  0  0  0  0  0  0  0  0  0  0  0
    4.5772    0.1900   -1.7287 C   0  0  0  0  0  0  0  0  0  0  0  0
    5.5799   -0.7941   -1.7359 C   0  0  0  0  0  0  0  0  0  0  0  0
    6.3852   -1.0005   -0.6127 C   0  0  0  0  0  0  0  0  0  0  0  0
    6.1789   -0.2277    0.5317 C   0  0  0  0  0  0  0  0  0  0  0  0
    5.1942    0.7608    0.5575 C   0  0  0  0  0  0  0  0  0  0  0  0
    4.3917    0.9592   -0.5684 C   0  0  0  0  0  0  0  0  0  0  0  0
    7.1971   -0.4806    1.9654 S   0  0  0  0  0  6  0  0  0  0  0  0
    7.3570    0.8054    2.6163 O   0  0  0  0  0  0  0  0  0  0  0  0
    8.3532   -1.2543    1.5530 O   0  0  0  0  0  0  0  0  0  0  0  0
    6.1926   -1.5101    3.0023 C   0  0  0  0  0  0  0  0  0  0  0  0
   -8.3678    0.7821    2.0482 H   0  0  0  0  0  0  0  0  0  0  0  0
   -8.9943   -0.8808    2.0738 H   0  0  0  0  0  0  0  0  0  0  0  0
   -8.9640    0.0131    0.5623 H   0  0  0  0  0  0  0  0  0  0  0  0
   -6.7698   -2.0205    2.8040 H   0  0  0  0  0  0  0  0  0  0  0  0
   -6.5998   -0.3189    3.2436 H   0  0  0  0  0  0  0  0  0  0  0  0
   -4.6144   -1.9355    1.5719 H   0  0  0  0  0  0  0  0  0  0  0  0
   -4.4219   -1.4512    3.2687 H   0  0  0  0  0  0  0  0  0  0  0  0
   -5.7222    1.6491    1.9524 H   0  0  0  0  0  0  0  0  0  0  0  0
   -4.7110    1.7715    0.5403 H   0  0  0  0  0  0  0  0  0  0  0  0
   -5.7597   -0.3419   -0.3711 H   0  0  0  0  0  0  0  0  0  0  0  0
   -6.9171    0.9515   -0.1573 H   0  0  0  0  0  0  0  0  0  0  0  0
   -2.1973   -0.5481    3.3581 H   0  0  0  0  0  0  0  0  0  0  0  0
    0.1405   -0.7840    2.6261 H   0  0  0  0  0  0  0  0  0  0  0  0
    0.7752   -0.3473    0.3048 H   0  0  0  0  0  0  0  0  0  0  0  0
   -3.3178    0.5552   -0.6383 H   0  0  0  0  0  0  0  0  0  0  0  0
   -1.7690    0.5719   -2.2657 H   0  0  0  0  0  0  0  0  0  0  0  0
    1.5137    1.0557   -6.0815 H   0  0  0  0  0  0  0  0  0  0  0  0
    4.0264    0.9884   -6.2672 H   0  0  0  0  0  0  0  0  0  0  0  0
    5.3643    0.6095   -4.2364 H   0  0  0  0  0  0  0  0  0  0  0  0
    5.7368   -1.4167   -2.6146 H   0  0  0  0  0  0  0  0  0  0  0  0
    7.1620   -1.7612   -0.6419 H   0  0  0  0  0  0  0  0  0  0  0  0
    5.0430    1.3792    1.4397 H   0  0  0  0  0  0  0  0  0  0  0  0
    3.6153    1.7222   -0.5337 H   0  0  0  0  0  0  0  0  0  0  0  0
    5.9767   -2.4427    2.4778 H   0  0  0  0  0  0  0  0  0  0  0  0
    6.7532   -1.7203    3.9158 H   0  0  0  0  0  0  0  0  0  0  0  0
    5.2704   -0.9807    3.2477 H   0  0  0  0  0  0  0  0  0  0  0  0
  1  2  1  0
  2  3  1  0
  3  4  1  0
  4  5  1  0
  5  6  1  0
  6  7  1  0
  5  8  1  0
  8  9  2  0
  9 10  1  0
 10 11  2  0
 11 12  1  0
 12 13  2  0
 12 14  1  0
 14 15  1  0
 15 16  2  0
 16 17  1  0
 17 18  1  0
 18 19  2  0
 19 20  1  0
 20 21  2  0
 21 22  1  0
 22 23  2  0
 21 24  1  0
 24 25  2  0
 25 26  1  0
 26 27  2  0
 27 28  1  0
 28 29  2  0
 27 30  1  0
 30 31  2  0
 30 32  2  0
 30 33  1  0
  7  2  1  0
 13  8  1  0
 23 15  1  0
 22 17  1  0
 29 24  1  0
  1 34  1  0
  1 35  1  0
  1 36  1  0
  3 37  1  0
  3 38  1  0
  4 39  1  0
  4 40  1  0
  6 41  1  0
  6 42  1  0
  7 43  1  0
  7 44  1  0
  9 45  1  0
 10 46  1  0
 11 47  1  0
 13 48  1  0
 14 49  1  0
 18 50  1  0
 19 51  1  0
 20 52  1  0
 25 53  1  0
 26 54  1  0
 28 55  1  0
 29 56  1  0
 33 57  1  0
 33 58  1  0
 33 59  1  0
M  END
$$$$
