
     RDKit          3D

 64 67  0  0  0  0  0  0  0  0999 V2000
    1.1975    0.0880    1.2434 C   0  0  0  0  0  0  0  0  0  0  0  0
    0.8017    0.0810   -0.2478 C   0  0  0  0  0  0  0  0  0  0  0  0
    0.0676    1.3956   -0.5864 C   0  0  0  0  0  0  0  0  0  0  0  0
   -1.3542    1.5211   -0.0142 C   0  0  0  0  0  0  0  0  0  0  0  0
   -2.0902    0.1743    0.1847 C   0  0  0  0  0  0  0  0  0  0  0  0
   -1.5640   -0.8220   -0.8769 C   0  0  0  0  0  0  0  0  0  0  0  0
   -0.0936   -1.1708   -0.5482 C   0  0  0  0  0  0  0  0  0  0  0  0
    0.6135   -1.9335   -1.6778 C   0  0  0  0  0  0  0  0  0  0  0  0
    2.0824   -1.5961   -1.4833 C   0  0  0  0  0  0  0  0  0  0  0  0
    2.0300   -0.0975   -1.1939 C   0  0  0  0  0  0  0  0  0  0  0  0
    3.3406    0.5505   -0.7517 C   0  0  0  0  0  0  0  0  0  0  0  0
    3.6237    1.6874   -1.1218 O   0  0  0  0  0  0  0  0  0  0  0  0
    4.1278   -0.1858    0.1028 N   0  0  0  0  0  0  0  0  0  0  0  0
    5.3890    0.2839    0.6993 C   0  0  0  0  0  0  0  0  0  0  0  0
    5.9656   -0.8627    1.5512 C   0  0  0  0  0  0  0  0  0  0  0  0
    6.4196    0.6387   -0.3848 C   0  0  0  0  0  0  0  0  0  0  0  0
    5.1436    1.4932    1.6148 C   0  0  0  0  0  0  0  0  0  0  0  0
   -2.4409   -2.0664   -0.9627 C   0  0  0  0  0  0  0  0  0  0  0  0
   -3.8466   -1.7000   -1.4258 C   0  0  0  0  0  0  0  0  0  0  0  0
   -4.4097   -0.4343   -0.8208 C   0  0  0  0  0  0  0  0  0  0  0  0
   -5.5748    0.0330   -1.3096 C   0  0  0  0  0  0  0  0  0  0  0  0
   -6.2870    1.1815   -0.7005 C   0  0  0  0  0  0  0  0  0  0  0  0
   -7.3526    1.5553   -1.1844 O   0  0  0  0  0  0  0  0  0  0  0  0
   -5.7104    1.7970    0.5480 C   0  0  0  0  0  0  0  0  0  0  0  0
   -4.1910    1.6813    0.5360 C   0  0  0  0  0  0  0  0  0  0  0  0
   -3.6708    0.2250    0.3460 C   0  0  0  0  0  0  0  0  0  0  0  0
   -4.0468   -0.5763    1.6262 C   0  0  0  0  0  0  0  0  0  0  0  0
    1.7372   -0.8241    1.5191 H   0  0  0  0  0  0  0  0  0  0  0  0
    0.3233    0.1492    1.8982 H   0  0  0  0  0  0  0  0  0  0  0  0
    1.8324    0.9470    1.4852 H   0  0  0  0  0  0  0  0  0  0  0  0
   -0.0195    1.4843   -1.6784 H   0  0  0  0  0  0  0  0  0  0  0  0
    0.6628    2.2631   -0.2740 H   0  0  0  0  0  0  0  0  0  0  0  0
   -1.8956    2.1665   -0.7120 H   0  0  0  0  0  0  0  0  0  0  0  0
   -1.3144    2.0508    0.9454 H   0  0  0  0  0  0  0  0  0  0  0  0
   -1.7236   -0.1972    1.1523 H   0  0  0  0  0  0  0  0  0  0  0  0
   -1.5976   -0.3341   -1.8622 H   0  0  0  0  0  0  0  0  0  0  0  0
   -0.0879   -1.8282    0.3337 H   0  0  0  0  0  0  0  0  0  0  0  0
    0.4362   -3.0120   -1.6215 H   0  0  0  0  0  0  0  0  0  0  0  0
    0.2752   -1.5859   -2.6614 H   0  0  0  0  0  0  0  0  0  0  0  0
    2.6779   -1.8242   -2.3729 H   0  0  0  0  0  0  0  0  0  0  0  0
    2.4882   -2.1768   -0.6488 H   0  0  0  0  0  0  0  0  0  0  0  0
    1.8052    0.3760   -2.1627 H   0  0  0  0  0  0  0  0  0  0  0  0
    3.7344   -1.0299    0.4927 H   0  0  0  0  0  0  0  0  0  0  0  0
    6.1495   -1.7540    0.9399 H   0  0  0  0  0  0  0  0  0  0  0  0
    5.2690   -1.1526    2.3468 H   0  0  0  0  0  0  0  0  0  0  0  0
    6.9123   -0.5757    2.0224 H   0  0  0  0  0  0  0  0  0  0  0  0
    7.3902    0.8876    0.0593 H   0  0  0  0  0  0  0  0  0  0  0  0
    6.1086    1.5004   -0.9834 H   0  0  0  0  0  0  0  0  0  0  0  0
    6.5698   -0.2009   -1.0733 H   0  0  0  0  0  0  0  0  0  0  0  0
    6.0650    1.7965    2.1247 H   0  0  0  0  0  0  0  0  0  0  0  0
    4.7780    2.3613    1.0571 H   0  0  0  0  0  0  0  0  0  0  0  0
    4.3958    1.2602    2.3816 H   0  0  0  0  0  0  0  0  0  0  0  0
   -2.4772   -2.5760    0.0068 H   0  0  0  0  0  0  0  0  0  0  0  0
   -2.0224   -2.7917   -1.6702 H   0  0  0  0  0  0  0  0  0  0  0  0
   -4.5155   -2.5410   -1.2046 H   0  0  0  0  0  0  0  0  0  0  0  0
   -3.8265   -1.5863   -2.5182 H   0  0  0  0  0  0  0  0  0  0  0  0
   -6.0927   -0.4423   -2.1363 H   0  0  0  0  0  0  0  0  0  0  0  0
   -6.1552    1.3129    1.4222 H   0  0  0  0  0  0  0  0  0  0  0  0
   -5.9876    2.8570    0.5697 H   0  0  0  0  0  0  0  0  0  0  0  0
   -3.8518    2.3127   -0.2929 H   0  0  0  0  0  0  0  0  0  0  0  0
   -3.7873    2.1162    1.4584 H   0  0  0  0  0  0  0  0  0  0  0  0
   -5.1305   -0.6837    1.7466 H   0  0  0  0  0  0  0  0  0  0  0  0
   -3.6320   -1.5891    1.6173 H   0  0  0  0  0  0  0  0  0  0  0  0
   -3.6634   -0.0775    2.5241 H   0  0  0  0  0  0  0  0  0  0  0  0
  1  2  1  0
  2  3  1  0
  3  4  1  0
  4  5  1  0
  5  6  1  0
  6  7  1  0
  7  8  1  0
  8  9  1  0
  9 10  1  0
 10 11  1  0
 11 12  2  0
 11 13  1  0
 13 14  1  0
 14 15  1  0
 14 16  1  0
 14 17  1  0
  6 18  1  0
 18 19  1  0
 19 20  1  0
 20 21  2  0
 21 22  1  0
 22 23  2  0
 22 24  1  0
 24 25  1  0
 25 26  1  0
 26 27  1  0
  7  2  1  0
 10  2  1  0
 26  5  1  0
 26 20  1  0
  1 28  1  0
  1 29  1  0
  1 30  1  0
  3 31  1  0
  3 32  1  0
  4 33  1  0
  4 34  1  0
  5 35  1  0
  6 36  1  0
  7 37  1  0
  8 38  1  0
  8 39  1  0
  9 40  1  0
  9 41  1  0
 10 42  1  0
 13 43  1  0
 15 44  1  0
 15 45  1  0
 15 46  1  0
 16 47  1  0
 16 48  1  0
 16 49  1  0
 17 50  1  0
 17 51  1  0
 17 52  1  0
 18 53  1  0
 18 54  1  0
 19 55  1  0
 19 56  1  0
 21 57  1  0
 24 58  1  0
 24 59  1  0
 25 60  1  0
 25 61  1  0
 27 62  1  0
 27 63  1  0
 27 64  1  0
M  END
$$$$
