
     RDKit          3D

 57 60  0  0  0  0  0  0  0  0999 V2000
   -3.0354    1.5658    1.1074 C   0  0  0  0  0  0  0  0  0  0  0  0
   -3.0388    1.1003   -0.3475 C   0  0  0  0  0  0  0  0  0  0  0  0
   -1.8364    1.6839   -1.0982 C   0  0  0  0  0  0  0  0  0  0  0  0
   -0.7261    0.6104   -1.1061 C   0  0  0  0  0  0  0  0  0  0  0  0
    0.5032    1.0390   -0.2460 C   0  0  0  0  0  0  0  0  0  0  0  0
    1.2538    2.1789   -0.9752 C   0  0  0  0  0  0  0  0  0  0  0  0
    2.5327    2.6028   -0.2664 C   0  0  0  0  0  0  0  0  0  0  0  0
    3.4237    1.4083   -0.0588 C   0  0  0  0  0  0  0  0  0  0  0  0
    4.6597    1.3791   -0.5898 C   0  0  0  0  0  0  0  0  0  0  0  0
    5.5396    0.1996   -0.4554 C   0  0  0  0  0  0  0  0  0  0  0  0
    6.6702    0.1913   -0.9253 O   0  0  0  0  0  0  0  0  0  0  0  0
    4.9975   -0.9662    0.2691 C   0  0  0  0  0  0  0  0  0  0  0  0
    3.7675   -0.9386    0.7998 C   0  0  0  0  0  0  0  0  0  0  0  0
    2.8053    0.2459    0.7309 C   0  0  0  0  0  0  0  0  0  0  0  0
    2.6010    0.7196    2.1906 C   0  0  0  0  0  0  0  0  0  0  0  0
    1.4443   -0.1643    0.0306 C   0  0  0  0  0  0  0  0  0  0  0  0
    1.7734   -0.6735   -1.2147 F   0  0  0  0  0  0  0  0  0  0  0  0
    0.6877   -1.2982    0.7720 C   0  0  0  0  0  0  0  0  0  0  0  0
    1.1432   -2.5841    0.3391 O   0  0  0  0  0  0  0  0  0  0  0  0
   -0.8386   -1.2447    0.6515 C   0  0  0  0  0  0  0  0  0  0  0  0
   -1.3975   -0.7436   -0.7026 C   0  0  0  0  0  0  0  0  0  0  0  0
   -1.1100   -1.8218   -1.7786 C   0  0  0  0  0  0  0  0  0  0  0  0
   -2.9395   -0.4128   -0.6502 C   0  0  0  0  0  0  0  0  0  0  0  0
   -3.5226   -0.5834   -1.9590 O   0  0  0  0  0  0  0  0  0  0  0  0
   -3.7516   -1.3164    0.3129 C   0  0  0  0  0  0  0  0  0  0  0  0
   -3.6905   -1.2134    1.5437 O   0  0  0  0  0  0  0  0  0  0  0  0
   -4.5986   -2.4316   -0.2996 C   0  0  0  0  0  0  0  0  0  0  0  0
   -5.3073   -3.1592    0.6987 O   0  0  0  0  0  0  0  0  0  0  0  0
   -3.9320    1.2290    1.6338 H   0  0  0  0  0  0  0  0  0  0  0  0
   -3.0467    2.6601    1.1495 H   0  0  0  0  0  0  0  0  0  0  0  0
   -2.1571    1.2386    1.6630 H   0  0  0  0  0  0  0  0  0  0  0  0
   -3.9527    1.5088   -0.8002 H   0  0  0  0  0  0  0  0  0  0  0  0
   -1.5182    2.6408   -0.6752 H   0  0  0  0  0  0  0  0  0  0  0  0
   -2.1261    1.8946   -2.1357 H   0  0  0  0  0  0  0  0  0  0  0  0
   -0.3774    0.5284   -2.1458 H   0  0  0  0  0  0  0  0  0  0  0  0
    0.1436    1.4319    0.7141 H   0  0  0  0  0  0  0  0  0  0  0  0
    0.6090    3.0588   -1.0755 H   0  0  0  0  0  0  0  0  0  0  0  0
    1.5032    1.8612   -1.9968 H   0  0  0  0  0  0  0  0  0  0  0  0
    2.2980    3.0711    0.6967 H   0  0  0  0  0  0  0  0  0  0  0  0
    3.0320    3.3737   -0.8663 H   0  0  0  0  0  0  0  0  0  0  0  0
    5.0782    2.2030   -1.1572 H   0  0  0  0  0  0  0  0  0  0  0  0
    5.6482   -1.8292    0.3483 H   0  0  0  0  0  0  0  0  0  0  0  0
    3.4319   -1.8273    1.3339 H   0  0  0  0  0  0  0  0  0  0  0  0
    3.5123    1.1866    2.5870 H   0  0  0  0  0  0  0  0  0  0  0  0
    1.7954    1.4549    2.2823 H   0  0  0  0  0  0  0  0  0  0  0  0
    2.3606   -0.1076    2.8672 H   0  0  0  0  0  0  0  0  0  0  0  0
    0.8938   -1.2667    1.8432 H   0  0  0  0  0  0  0  0  0  0  0  0
    1.5546   -2.4591   -0.5412 H   0  0  0  0  0  0  0  0  0  0  0  0
   -1.2463   -2.2403    0.8740 H   0  0  0  0  0  0  0  0  0  0  0  0
   -1.1873   -0.5854    1.4512 H   0  0  0  0  0  0  0  0  0  0  0  0
   -1.5992   -2.7685   -1.5266 H   0  0  0  0  0  0  0  0  0  0  0  0
   -1.4564   -1.5196   -2.7732 H   0  0  0  0  0  0  0  0  0  0  0  0
   -0.0434   -2.0222   -1.8907 H   0  0  0  0  0  0  0  0  0  0  0  0
   -3.0898    0.0188   -2.5927 H   0  0  0  0  0  0  0  0  0  0  0  0
   -5.3350   -2.0062   -0.9840 H   0  0  0  0  0  0  0  0  0  0  0  0
   -3.9466   -3.1305   -0.8298 H   0  0  0  0  0  0  0  0  0  0  0  0
   -4.8562   -2.9711    1.5463 H   0  0  0  0  0  0  0  0  0  0  0  0
  1  2  1  0
  2  3  1  0
  3  4  1  0
  4  5  1  0
  5  6  1  0
  6  7  1  0
  7  8  1  0
  8  9  2  0
  9 10  1  0
 10 11  2  0
 10 12  1  0
 12 13  2  0
 13 14  1  0
 14 15  1  0
 14 16  1  0
 16 17  1  0
 16 18  1  0
 18 19  1  0
 18 20  1  0
 20 21  1  0
 21 22  1  0
 21 23  1  0
 23 24  1  0
 23 25  1  0
 25 26  2  0
 25 27  1  0
 27 28  1  0
 23  2  1  0
 21  4  1  0
 16  5  1  0
 14  8  1  0
  1 29  1  0
  1 30  1  0
  1 31  1  0
  2 32  1  0
  3 33  1  0
  3 34  1  0
  4 35  1  0
  5 36  1  0
  6 37  1  0
  6 38  1  0
  7 39  1  0
  7 40  1  0
  9 41  1  0
 12 42  1  0
 13 43  1  0
 15 44  1  0
 15 45  1  0
 15 46  1  0
 18 47  1  0
 19 48  1  0
 20 49  1  0
 20 50  1  0
 22 51  1  0
 22 52  1  0
 22 53  1  0
 24 54  1  0
 27 55  1  0
 27 56  1  0
 28 57  1  0
M  END
$$$$
