
     RDKit          3D

 34 36  0  0  0  0  0  0  0  0999 V2000
    2.3072   -0.6920   -1.3256 C   0  0  0  0  0  0  0  0  0  0  0  0
    2.8335   -0.2971    0.0544 C   0  0  0  0  0  0  0  0  0  0  0  0
    3.9291   -1.2737    0.4876 C   0  0  0  0  0  0  0  0  0  0  0  0
    1.7294   -0.2447    1.1258 C   0  0  0  0  0  0  0  0  0  0  0  0
    0.7444    0.7975    0.9085 N   0  0  0  0  0  0  0  0  0  0  0  0
    0.9949    2.1028    1.2532 C   0  0  0  0  0  0  0  0  0  0  0  0
   -0.0325    2.8780    1.0249 N   0  0  0  0  0  0  0  0  0  0  0  0
   -0.9978    2.0420    0.5019 C   0  0  0  0  0  0  0  0  0  0  0  0
   -0.5461    0.7174    0.4225 C   0  0  0  0  0  0  0  0  0  0  0  0
   -1.4056   -0.3041   -0.0821 C   0  0  0  0  0  0  0  0  0  0  0  0
   -1.0647   -1.6683   -0.2369 C   0  0  0  0  0  0  0  0  0  0  0  0
   -1.9943   -2.5800   -0.7361 C   0  0  0  0  0  0  0  0  0  0  0  0
   -3.2650   -2.1460   -1.0857 C   0  0  0  0  0  0  0  0  0  0  0  0
   -3.6017   -0.7985   -0.9390 C   0  0  0  0  0  0  0  0  0  0  0  0
   -2.7038    0.1373   -0.4485 C   0  0  0  0  0  0  0  0  0  0  0  0
   -3.1301    1.4043   -0.3570 N   0  0  0  0  0  0  0  0  0  0  0  0
   -2.3048    2.3733    0.0882 C   0  0  0  0  0  0  0  0  0  0  0  0
   -2.8038    3.6702    0.1484 N   0  0  0  0  0  0  0  0  0  0  0  0
    1.8701   -1.6953   -1.3145 H   0  0  0  0  0  0  0  0  0  0  0  0
    3.1202   -0.6938   -2.0599 H   0  0  0  0  0  0  0  0  0  0  0  0
    1.5494    0.0121   -1.6820 H   0  0  0  0  0  0  0  0  0  0  0  0
    3.2890    0.6977   -0.0352 H   0  0  0  0  0  0  0  0  0  0  0  0
    4.3591   -0.9748    1.4494 H   0  0  0  0  0  0  0  0  0  0  0  0
    4.7415   -1.2987   -0.2465 H   0  0  0  0  0  0  0  0  0  0  0  0
    3.5357   -2.2906    0.5930 H   0  0  0  0  0  0  0  0  0  0  0  0
    2.1843   -0.0287    2.1025 H   0  0  0  0  0  0  0  0  0  0  0  0
    1.2267   -1.2028    1.2536 H   0  0  0  0  0  0  0  0  0  0  0  0
    1.9421    2.4254    1.6675 H   0  0  0  0  0  0  0  0  0  0  0  0
   -0.0849   -2.0494    0.0113 H   0  0  0  0  0  0  0  0  0  0  0  0
   -1.7247   -3.6266   -0.8541 H   0  0  0  0  0  0  0  0  0  0  0  0
   -3.9973   -2.8474   -1.4768 H   0  0  0  0  0  0  0  0  0  0  0  0
   -4.5991   -0.4676   -1.2218 H   0  0  0  0  0  0  0  0  0  0  0  0
   -3.8128    3.6710    0.2089 H   0  0  0  0  0  0  0  0  0  0  0  0
   -2.2878    4.2509    0.8002 H   0  0  0  0  0  0  0  0  0  0  0  0
  1  2  1  0
  2  3  1  0
  2  4  1  0
  4  5  1  0
  5  6  1  0
  6  7  2  0
  7  8  1  0
  8  9  2  0
  9 10  1  0
 10 11  2  0
 11 12  1  0
 12 13  2  0
 13 14  1  0
 14 15  2  0
 15 16  1  0
 16 17  2  0
 17 18  1  0
  9  5  1  0
 17  8  1  0
 15 10  1  0
  1 19  1  0
  1 20  1  0
  1 21  1  0
  2 22  1  0
  3 23  1  0
  3 24  1  0
  3 25  1  0
  4 26  1  0
  4 27  1  0
  6 28  1  0
 11 29  1  0
 12 30  1  0
 13 31  1  0
 14 32  1  0
 18 33  1  0
 18 34  1  0
M  END
$$$$
