
     RDKit          3D

 51 54  0  0  0  0  0  0  0  0999 V2000
    3.9628   -2.9309    1.4761 C   0  0  0  0  0  0  0  0  0  0  0  0
    5.0680   -3.7788    1.5820 C   0  0  0  0  0  0  0  0  0  0  0  0
    6.1848   -3.5343    0.7993 C   0  0  0  0  0  0  0  0  0  0  0  0
    6.2144   -2.4589   -0.0826 C   0  0  0  0  0  0  0  0  0  0  0  0
    5.1183   -1.6099   -0.1954 C   0  0  0  0  0  0  0  0  0  0  0  0
    3.9737   -1.8408    0.5857 C   0  0  0  0  0  0  0  0  0  0  0  0
    2.8086   -0.9424    0.4826 C   0  0  0  0  0  0  0  0  0  0  0  0
    1.5789   -1.4317    0.2638 C   0  0  0  0  0  0  0  0  0  0  0  0
    0.4149   -0.7134    0.1413 O   0  0  0  0  0  0  0  0  0  0  0  0
    0.4714    0.6548    0.2635 C   0  0  0  0  0  0  0  0  0  0  0  0
    1.6815    1.3149    0.4952 C   0  0  0  0  0  0  0  0  0  0  0  0
    2.9313    0.5367    0.5871 C   0  0  0  0  0  0  0  0  0  0  0  0
    4.0075    1.1018    0.7429 O   0  0  0  0  0  0  0  0  0  0  0  0
    1.7166    2.7043    0.6363 C   0  0  0  0  0  0  0  0  0  0  0  0
    0.5359    3.4362    0.5478 C   0  0  0  0  0  0  0  0  0  0  0  0
   -0.6706    2.7760    0.3084 C   0  0  0  0  0  0  0  0  0  0  0  0
   -0.7325    1.3796    0.1528 C   0  0  0  0  0  0  0  0  0  0  0  0
   -2.0429    0.6681   -0.1513 C   0  0  1  0  0  0  0  0  0  0  0  0
   -3.0697    0.7868    0.9997 C   0  0  1  0  0  0  0  0  0  0  0  0
   -4.3938    0.1548    0.5601 C   0  0  2  0  0  0  0  0  0  0  0  0
   -4.8641    0.7514   -0.7653 C   0  0  1  0  0  0  0  0  0  0  0  0
   -3.7607    0.5765   -1.8196 C   0  0  2  0  0  0  0  0  0  0  0  0
   -2.5508    1.2053   -1.3837 O   0  0  0  0  0  0  0  0  0  0  0  0
   -4.1798    1.1904   -3.1623 C   0  0  0  0  0  0  0  0  0  0  0  0
   -5.2658    0.4899   -3.7598 O   0  0  0  0  0  0  0  0  0  0  0  0
   -6.0807    0.1126   -1.1725 O   0  0  0  0  0  0  0  0  0  0  0  0
   -5.4079    0.3716    1.5552 O   0  0  0  0  0  0  0  0  0  0  0  0
   -2.6389    0.1025    2.1881 O   0  0  0  0  0  0  0  0  0  0  0  0
   -1.8220    3.5086    0.2353 O   0  0  0  0  0  0  0  0  0  0  0  0
    7.3517   -2.2724   -0.8199 O   0  0  0  0  0  0  0  0  0  0  0  0
    7.2666   -4.3586    0.9051 O   0  0  0  0  0  0  0  0  0  0  0  0
    3.0988   -3.1225    2.1086 H   0  0  0  0  0  0  0  0  0  0  0  0
    5.0602   -4.6147    2.2737 H   0  0  0  0  0  0  0  0  0  0  0  0
    5.1475   -0.7639   -0.8762 H   0  0  0  0  0  0  0  0  0  0  0  0
    1.3626   -2.4875    0.1464 H   0  0  0  0  0  0  0  0  0  0  0  0
    2.6603    3.2159    0.8182 H   0  0  0  0  0  0  0  0  0  0  0  0
    0.5740    4.5151    0.6691 H   0  0  0  0  0  0  0  0  0  0  0  0
   -1.8453   -0.3967   -0.3240 H   0  0  0  0  0  0  0  0  0  0  0  0
   -3.2646    1.8257    1.2849 H   0  0  0  0  0  0  0  0  0  0  0  0
   -4.2939   -0.9351    0.4750 H   0  0  0  0  0  0  0  0  0  0  0  0
   -5.0930    1.8154   -0.6223 H   0  0  0  0  0  0  0  0  0  0  0  0
   -3.5764   -0.4936   -1.9851 H   0  0  0  0  0  0  0  0  0  0  0  0
   -4.4661    2.2411   -3.0362 H   0  0  0  0  0  0  0  0  0  0  0  0
   -3.3388    1.1781   -3.8660 H   0  0  0  0  0  0  0  0  0  0  0  0
   -5.9093    0.2961   -3.0441 H   0  0  0  0  0  0  0  0  0  0  0  0
   -6.6316    0.0906   -0.3616 H   0  0  0  0  0  0  0  0  0  0  0  0
   -4.9844    0.1288    2.4039 H   0  0  0  0  0  0  0  0  0  0  0  0
   -1.8533    0.5774    2.5168 H   0  0  0  0  0  0  0  0  0  0  0  0
   -1.5974    4.4496    0.1392 H   0  0  0  0  0  0  0  0  0  0  0  0
    7.2209   -1.4920   -1.3844 H   0  0  0  0  0  0  0  0  0  0  0  0
    7.9232   -3.9786    0.2866 H   0  0  0  0  0  0  0  0  0  0  0  0
  1  2  2  0
  2  3  1  0
  3  4  2  0
  4  5  1  0
  5  6  2  0
  6  7  1  0
  7  8  2  0
  8  9  1  0
  9 10  1  0
 10 11  2  0
 11 12  1  0
 12 13  2  0
 11 14  1  0
 14 15  2  0
 15 16  1  0
 16 17  2  0
 17 18  1  0
 18 19  1  0
 19 20  1  0
 20 21  1  0
 21 22  1  0
 22 23  1  0
 22 24  1  0
 24 25  1  0
 21 26  1  0
 20 27  1  0
 19 28  1  0
 16 29  1  0
  4 30  1  0
  3 31  1  0
  6  1  1  0
 12  7  1  0
 17 10  1  0
 23 18  1  0
  1 32  1  0
  2 33  1  0
  5 34  1  0
  8 35  1  0
 14 36  1  0
 15 37  1  0
 18 38  1  6
 19 39  1  1
 20 40  1  6
 21 41  1  1
 22 42  1  6
 24 43  1  0
 24 44  1  0
 25 45  1  0
 26 46  1  0
 27 47  1  0
 28 48  1  0
 29 49  1  0
 30 50  1  0
 31 51  1  0
M  END
$$$$
