
     RDKit          3D

 56 59  0  0  0  0  0  0  0  0999 V2000
   -2.9962    1.3568    0.5641 C   0  0  0  0  0  0  0  0  0  0  0  0
   -2.5017    0.5451   -0.6544 C   0  0  2  0  0  0  0  0  0  0  0  0
   -2.7562    1.3730   -1.9494 C   0  0  0  0  0  0  0  0  0  0  0  0
   -4.2223    1.4512   -2.3484 C   0  0  0  0  0  0  0  0  0  0  0  0
   -4.7946    0.0665   -2.4962 C   0  0  0  0  0  0  0  0  0  0  0  0
   -5.6762   -0.1987   -3.3094 O   0  0  0  0  0  0  0  0  0  0  0  0
   -4.3250   -0.9807   -1.5605 C   0  0  0  0  0  0  0  0  0  0  0  0
   -3.3206   -0.7545   -0.6949 C   0  0  0  0  0  0  0  0  0  0  0  0
   -2.9750   -1.7958    0.3417 C   0  0  0  0  0  0  0  0  0  0  0  0
   -1.4888   -2.1209    0.3439 C   0  0  0  0  0  0  0  0  0  0  0  0
   -0.6260   -0.8600    0.5170 C   0  0  2  0  0  0  0  0  0  0  0  0
   -0.9624    0.1823   -0.5970 C   0  0  2  0  0  0  0  0  0  0  0  0
    0.0116    1.3989   -0.5899 C   0  0  2  0  0  0  0  0  0  0  0  0
    1.4997    0.9876   -0.5205 C   0  0  0  0  0  0  0  0  0  0  0  0
    1.8110   -0.0080    0.6189 C   0  0  1  0  0  0  0  0  0  0  0  0
    0.8667   -1.2180    0.4341 C   0  0  1  0  0  0  0  0  0  0  0  0
    1.4168   -2.2537    1.4091 C   0  0  0  0  0  0  0  0  0  0  0  0
    2.9423   -2.0353    1.3862 C   0  0  0  0  0  0  0  0  0  0  0  0
    3.1966   -0.7388    0.5627 C   0  0  2  0  0  0  0  0  0  0  0  0
    4.3723    0.0780    1.1516 C   0  0  0  0  0  0  0  0  0  0  0  0
    4.6757    0.0639    2.3488 O   0  0  0  0  0  0  0  0  0  0  0  0
    5.1651    0.9519    0.1880 C   0  0  0  0  0  0  0  0  0  0  0  0
    5.9398    1.9236    0.8739 O   0  0  0  0  0  0  0  0  0  0  0  0
    3.5129   -1.1882   -0.7597 O   0  0  0  0  0  0  0  0  0  0  0  0
    1.6425    0.6858    2.0000 C   0  0  0  0  0  0  0  0  0  0  0  0
   -0.2808    2.2896    0.4744 O   0  0  0  0  0  0  0  0  0  0  0  0
   -4.0916    1.3650    0.6238 H   0  0  0  0  0  0  0  0  0  0  0  0
   -2.6306    0.9483    1.5112 H   0  0  0  0  0  0  0  0  0  0  0  0
   -2.6873    2.4052    0.5107 H   0  0  0  0  0  0  0  0  0  0  0  0
   -2.3694    2.3931   -1.8373 H   0  0  0  0  0  0  0  0  0  0  0  0
   -2.2032    0.9225   -2.7857 H   0  0  0  0  0  0  0  0  0  0  0  0
   -4.8162    2.0024   -1.6126 H   0  0  0  0  0  0  0  0  0  0  0  0
   -4.3062    1.9670   -3.3114 H   0  0  0  0  0  0  0  0  0  0  0  0
   -4.8877   -1.9076   -1.5822 H   0  0  0  0  0  0  0  0  0  0  0  0
   -3.2723   -1.4281    1.3314 H   0  0  0  0  0  0  0  0  0  0  0  0
   -3.5384   -2.7225    0.1768 H   0  0  0  0  0  0  0  0  0  0  0  0
   -1.2253   -2.6309   -0.5921 H   0  0  0  0  0  0  0  0  0  0  0  0
   -1.2879   -2.8289    1.1564 H   0  0  0  0  0  0  0  0  0  0  0  0
   -0.8499   -0.4367    1.5015 H   0  0  0  0  0  0  0  0  0  0  0  0
   -0.7445   -0.3379   -1.5453 H   0  0  0  0  0  0  0  0  0  0  0  0
   -0.1264    1.9670   -1.5169 H   0  0  0  0  0  0  0  0  0  0  0  0
    1.7496    0.5450   -1.4911 H   0  0  0  0  0  0  0  0  0  0  0  0
    2.1245    1.8811   -0.4056 H   0  0  0  0  0  0  0  0  0  0  0  0
    1.0270   -1.6332   -0.5745 H   0  0  0  0  0  0  0  0  0  0  0  0
    1.1617   -3.2752    1.1085 H   0  0  0  0  0  0  0  0  0  0  0  0
    1.0245   -2.0999    2.4208 H   0  0  0  0  0  0  0  0  0  0  0  0
    3.4347   -2.9006    0.9262 H   0  0  0  0  0  0  0  0  0  0  0  0
    3.3052   -1.9704    2.4174 H   0  0  0  0  0  0  0  0  0  0  0  0
    5.8365    0.3171   -0.3963 H   0  0  0  0  0  0  0  0  0  0  0  0
    4.4850    1.4831   -0.4806 H   0  0  0  0  0  0  0  0  0  0  0  0
    6.1749    1.5238    1.7364 H   0  0  0  0  0  0  0  0  0  0  0  0
    3.4895   -0.4467   -1.3844 H   0  0  0  0  0  0  0  0  0  0  0  0
    0.6092    0.9533    2.2269 H   0  0  0  0  0  0  0  0  0  0  0  0
    1.9750    0.0556    2.8311 H   0  0  0  0  0  0  0  0  0  0  0  0
    2.2311    1.6096    2.0406 H   0  0  0  0  0  0  0  0  0  0  0  0
    0.2813    3.0779    0.3769 H   0  0  0  0  0  0  0  0  0  0  0  0
  2  1  1  1
  2  3  1  0
  3  4  1  0
  4  5  1  0
  5  6  2  0
  5  7  1  0
  7  8  2  0
  8  9  1  0
  9 10  1  0
 10 11  1  0
 11 12  1  0
 12 13  1  0
 13 14  1  0
 14 15  1  0
 15 16  1  0
 16 17  1  0
 17 18  1  0
 18 19  1  0
 19 20  1  0
 20 21  2  0
 20 22  1  0
 22 23  1  0
 19 24  1  6
 15 25  1  1
 13 26  1  0
  8  2  1  0
 12  2  1  0
 16 11  1  0
 19 15  1  0
  1 27  1  0
  1 28  1  0
  1 29  1  0
  3 30  1  0
  3 31  1  0
  4 32  1  0
  4 33  1  0
  7 34  1  0
  9 35  1  0
  9 36  1  0
 10 37  1  0
 10 38  1  0
 11 39  1  1
 12 40  1  6
 13 41  1  6
 14 42  1  0
 14 43  1  0
 16 44  1  6
 17 45  1  0
 17 46  1  0
 18 47  1  0
 18 48  1  0
 22 49  1  0
 22 50  1  0
 23 51  1  0
 24 52  1  0
 25 53  1  0
 25 54  1  0
 25 55  1  0
 26 56  1  0
M  END
$$$$
