
     RDKit          3D

 54 57  0  0  0  0  0  0  0  0999 V2000
   -2.2355    1.9419    0.0256 C   0  0  0  0  0  0  0  0  0  0  0  0
   -1.6801    0.4971    0.0657 C   0  0  0  0  0  0  0  0  0  0  0  0
   -0.8562    0.3130    1.3653 C   0  0  0  0  0  0  0  0  0  0  0  0
    0.5377    0.9612    1.3649 C   0  0  0  0  0  0  0  0  0  0  0  0
    0.3920    2.3778    1.4366 O   0  0  0  0  0  0  0  0  0  0  0  0
    1.4231    0.5716    0.1503 C   0  0  0  0  0  0  0  0  0  0  0  0
    0.6637   -0.2591   -0.9336 C   0  0  0  0  0  0  0  0  0  0  0  0
    0.8474   -1.7684   -0.7101 C   0  0  0  0  0  0  0  0  0  0  0  0
    2.3243   -2.1803   -0.8224 C   0  0  0  0  0  0  0  0  0  0  0  0
    3.2641   -1.0308   -0.5512 C   0  0  0  0  0  0  0  0  0  0  0  0
    4.3752   -0.8614   -1.2906 C   0  0  0  0  0  0  0  0  0  0  0  0
    5.2877    0.2788   -1.0703 C   0  0  0  0  0  0  0  0  0  0  0  0
    6.2925    0.4322   -1.7531 O   0  0  0  0  0  0  0  0  0  0  0  0
    4.9380    1.2299    0.0038 C   0  0  0  0  0  0  0  0  0  0  0  0
    3.8262    1.0650    0.7336 C   0  0  0  0  0  0  0  0  0  0  0  0
    2.8237   -0.0692    0.5490 C   0  0  0  0  0  0  0  0  0  0  0  0
    2.8410   -0.8675    1.8738 C   0  0  0  0  0  0  0  0  0  0  0  0
   -0.7736    0.2732   -1.1845 C   0  0  0  0  0  0  0  0  0  0  0  0
   -1.5952   -0.6036   -2.1343 C   0  0  0  0  0  0  0  0  0  0  0  0
   -2.4274   -1.4829   -1.2194 C   0  0  0  0  0  0  0  0  0  0  0  0
   -2.8653   -0.5545   -0.0711 C   0  0  0  0  0  0  0  0  0  0  0  0
   -2.9598   -1.3913    1.0823 O   0  0  0  0  0  0  0  0  0  0  0  0
   -4.2625    0.0295   -0.4709 C   0  0  0  0  0  0  0  0  0  0  0  0
   -4.4791    0.4851   -1.6077 O   0  0  0  0  0  0  0  0  0  0  0  0
   -5.3922    0.0779    0.5683 C   0  0  0  0  0  0  0  0  0  0  0  0
   -5.1788   -0.4984    1.8393 O   0  0  0  0  0  0  0  0  0  0  0  0
   -1.4449    2.6980    0.0706 H   0  0  0  0  0  0  0  0  0  0  0  0
   -2.7746    2.1544   -0.9067 H   0  0  0  0  0  0  0  0  0  0  0  0
   -2.9168    2.1300    0.8652 H   0  0  0  0  0  0  0  0  0  0  0  0
   -0.7101   -0.7537    1.5691 H   0  0  0  0  0  0  0  0  0  0  0  0
   -1.4316    0.7118    2.2127 H   0  0  0  0  0  0  0  0  0  0  0  0
    1.0048    0.6958    2.3137 H   0  0  0  0  0  0  0  0  0  0  0  0
    1.2545    2.7957    1.2583 H   0  0  0  0  0  0  0  0  0  0  0  0
    1.6529    1.5116   -0.3784 H   0  0  0  0  0  0  0  0  0  0  0  0
    1.1790   -0.0580   -1.8877 H   0  0  0  0  0  0  0  0  0  0  0  0
    0.2976   -2.3635   -1.4455 H   0  0  0  0  0  0  0  0  0  0  0  0
    0.4630   -2.0631    0.2718 H   0  0  0  0  0  0  0  0  0  0  0  0
    2.5271   -3.0029   -0.1258 H   0  0  0  0  0  0  0  0  0  0  0  0
    2.5029   -2.5763   -1.8315 H   0  0  0  0  0  0  0  0  0  0  0  0
    4.6649   -1.5422   -2.0850 H   0  0  0  0  0  0  0  0  0  0  0  0
    5.6298    2.0478    0.1628 H   0  0  0  0  0  0  0  0  0  0  0  0
    3.6228    1.7880    1.5205 H   0  0  0  0  0  0  0  0  0  0  0  0
    2.8400   -0.2190    2.7584 H   0  0  0  0  0  0  0  0  0  0  0  0
    1.9868   -1.5480    1.9629 H   0  0  0  0  0  0  0  0  0  0  0  0
    3.7517   -1.4811    1.9562 H   0  0  0  0  0  0  0  0  0  0  0  0
   -0.6271    1.2383   -1.6936 H   0  0  0  0  0  0  0  0  0  0  0  0
   -2.2491    0.0318   -2.7431 H   0  0  0  0  0  0  0  0  0  0  0  0
   -0.9886   -1.1864   -2.8335 H   0  0  0  0  0  0  0  0  0  0  0  0
   -1.8420   -2.3257   -0.8336 H   0  0  0  0  0  0  0  0  0  0  0  0
   -3.2734   -1.9230   -1.7622 H   0  0  0  0  0  0  0  0  0  0  0  0
   -3.2158   -0.8101    1.8277 H   0  0  0  0  0  0  0  0  0  0  0  0
   -6.2694   -0.4087    0.1217 H   0  0  0  0  0  0  0  0  0  0  0  0
   -5.6394    1.1341    0.7308 H   0  0  0  0  0  0  0  0  0  0  0  0
   -5.1258   -1.4691    1.6852 H   0  0  0  0  0  0  0  0  0  0  0  0
  1  2  1  0
  2  3  1  0
  3  4  1  0
  4  5  1  0
  4  6  1  0
  6  7  1  0
  7  8  1  0
  8  9  1  0
  9 10  1  0
 10 11  2  0
 11 12  1  0
 12 13  2  0
 12 14  1  0
 14 15  2  0
 15 16  1  0
 16 17  1  0
  7 18  1  0
 18 19  1  0
 19 20  1  0
 20 21  1  0
 21 22  1  0
 21 23  1  0
 23 24  2  0
 23 25  1  0
 25 26  1  0
 18  2  1  0
 21  2  1  0
 16  6  1  0
 16 10  1  0
  1 27  1  0
  1 28  1  0
  1 29  1  0
  3 30  1  0
  3 31  1  0
  4 32  1  0
  5 33  1  0
  6 34  1  0
  7 35  1  0
  8 36  1  0
  8 37  1  0
  9 38  1  0
  9 39  1  0
 11 40  1  0
 14 41  1  0
 15 42  1  0
 17 43  1  0
 17 44  1  0
 17 45  1  0
 18 46  1  0
 19 47  1  0
 19 48  1  0
 20 49  1  0
 20 50  1  0
 22 51  1  0
 25 52  1  0
 25 53  1  0
 26 54  1  0
M  END
$$$$
