
     RDKit          3D

 49 52  0  0  0  0  0  0  0  0999 V2000
   -3.3562    0.8616   -1.9228 C   0  0  0  0  0  0  0  0  0  0  0  0
   -2.3584    0.7758   -0.7393 C   0  0  0  0  0  0  0  0  0  0  0  0
   -1.1602    1.6714   -1.0813 C   0  0  0  0  0  0  0  0  0  0  0  0
    0.1298    1.4368   -0.2943 C   0  0  0  0  0  0  0  0  0  0  0  0
    0.3253    0.0351    0.3334 C   0  0  0  0  0  0  0  0  0  0  0  0
   -0.4712   -1.0368   -0.4452 C   0  0  0  0  0  0  0  0  0  0  0  0
    0.1496   -1.2621   -1.8351 C   0  0  0  0  0  0  0  0  0  0  0  0
    1.6198   -1.6676   -1.7311 C   0  0  0  0  0  0  0  0  0  0  0  0
    2.4429   -0.7497   -0.8522 C   0  0  0  0  0  0  0  0  0  0  0  0
    3.6567   -0.3402   -1.2619 C   0  0  0  0  0  0  0  0  0  0  0  0
    4.5620    0.4310   -0.3765 C   0  0  0  0  0  0  0  0  0  0  0  0
    5.6446    0.8174   -0.8108 O   0  0  0  0  0  0  0  0  0  0  0  0
    4.1537    0.6295    1.0615 C   0  0  0  0  0  0  0  0  0  0  0  0
    2.6434    0.7966    1.1629 C   0  0  0  0  0  0  0  0  0  0  0  0
    1.8439   -0.3695    0.5047 C   0  0  0  0  0  0  0  0  0  0  0  0
    1.9544   -1.5985    1.4457 C   0  0  0  0  0  0  0  0  0  0  0  0
   -1.9807   -0.7173   -0.5103 C   0  0  0  0  0  0  0  0  0  0  0  0
   -2.6921   -1.1266    0.8016 C   0  0  0  0  0  0  0  0  0  0  0  0
   -3.7677   -0.0782    1.0382 C   0  0  0  0  0  0  0  0  0  0  0  0
   -3.1060    1.2032    0.5513 C   0  0  0  0  0  0  0  0  0  0  0  0
   -2.2111    1.6711    1.5532 O   0  0  0  0  0  0  0  0  0  0  0  0
   -4.2515    0.2542   -1.7535 H   0  0  0  0  0  0  0  0  0  0  0  0
   -2.8947    0.5078   -2.8521 H   0  0  0  0  0  0  0  0  0  0  0  0
   -3.6823    1.8953   -2.0854 H   0  0  0  0  0  0  0  0  0  0  0  0
   -1.4451    2.7283   -0.9892 H   0  0  0  0  0  0  0  0  0  0  0  0
   -0.9168    1.5484   -2.1450 H   0  0  0  0  0  0  0  0  0  0  0  0
    0.1857    2.1837    0.5083 H   0  0  0  0  0  0  0  0  0  0  0  0
    0.9589    1.6741   -0.9728 H   0  0  0  0  0  0  0  0  0  0  0  0
   -0.0959    0.0904    1.3463 H   0  0  0  0  0  0  0  0  0  0  0  0
   -0.3888   -1.9956    0.0823 H   0  0  0  0  0  0  0  0  0  0  0  0
   -0.3967   -2.0569   -2.3580 H   0  0  0  0  0  0  0  0  0  0  0  0
    0.0670   -0.3713   -2.4643 H   0  0  0  0  0  0  0  0  0  0  0  0
    1.6799   -2.6836   -1.3208 H   0  0  0  0  0  0  0  0  0  0  0  0
    2.0389   -1.7234   -2.7435 H   0  0  0  0  0  0  0  0  0  0  0  0
    4.0712   -0.6045   -2.2285 H   0  0  0  0  0  0  0  0  0  0  0  0
    4.6404    1.5363    1.4378 H   0  0  0  0  0  0  0  0  0  0  0  0
    4.5157   -0.2175    1.6516 H   0  0  0  0  0  0  0  0  0  0  0  0
    2.4098    1.7536    0.6847 H   0  0  0  0  0  0  0  0  0  0  0  0
    2.3549    0.9068    2.2158 H   0  0  0  0  0  0  0  0  0  0  0  0
    1.4409   -2.4823    1.0563 H   0  0  0  0  0  0  0  0  0  0  0  0
    2.9965   -1.8969    1.6043 H   0  0  0  0  0  0  0  0  0  0  0  0
    1.5222   -1.3766    2.4283 H   0  0  0  0  0  0  0  0  0  0  0  0
   -2.4177   -1.3354   -1.3069 H   0  0  0  0  0  0  0  0  0  0  0  0
   -1.9990   -1.1380    1.6507 H   0  0  0  0  0  0  0  0  0  0  0  0
   -3.1223   -2.1309    0.7262 H   0  0  0  0  0  0  0  0  0  0  0  0
   -4.0507   -0.0386    2.0946 H   0  0  0  0  0  0  0  0  0  0  0  0
   -4.6602   -0.3117    0.4480 H   0  0  0  0  0  0  0  0  0  0  0  0
   -3.8393    1.9953    0.3664 H   0  0  0  0  0  0  0  0  0  0  0  0
   -2.7432    1.9061    2.3327 H   0  0  0  0  0  0  0  0  0  0  0  0
  1  2  1  0
  2  3  1  0
  3  4  1  0
  4  5  1  0
  5  6  1  0
  6  7  1  0
  7  8  1  0
  8  9  1  0
  9 10  2  0
 10 11  1  0
 11 12  2  0
 11 13  1  0
 13 14  1  0
 14 15  1  0
 15 16  1  0
  6 17  1  0
 17 18  1  0
 18 19  1  0
 19 20  1  0
 20 21  1  0
 17  2  1  0
 20  2  1  0
 15  5  1  0
 15  9  1  0
  1 22  1  0
  1 23  1  0
  1 24  1  0
  3 25  1  0
  3 26  1  0
  4 27  1  0
  4 28  1  0
  5 29  1  0
  6 30  1  0
  7 31  1  0
  7 32  1  0
  8 33  1  0
  8 34  1  0
 10 35  1  0
 13 36  1  0
 13 37  1  0
 14 38  1  0
 14 39  1  0
 16 40  1  0
 16 41  1  0
 16 42  1  0
 17 43  1  0
 18 44  1  0
 18 45  1  0
 19 46  1  0
 19 47  1  0
 20 48  1  0
 21 49  1  0
M  END
$$$$
