
     RDKit          3D

 70 71  0  0  0  0  0  0  0  0999 V2000
   -3.0046   -4.1497    2.1742 C   0  0  0  0  0  0  0  0  0  0  0  0
   -1.5817   -4.2254    1.6360 C   0  0  0  0  0  0  0  0  0  0  0  0
   -1.0456   -2.8931    1.1091 C   0  0  0  0  0  0  0  0  0  0  0  0
   -1.7788   -2.2181   -0.0913 C   0  0  2  0  0  0  0  0  0  0  0  0
   -1.6414   -2.8896   -1.5263 C   0  0  0  0  0  0  0  0  0  0  0  0
   -2.4788   -4.1943   -1.6049 C   0  0  0  0  0  0  0  0  0  0  0  0
   -2.2095   -1.9611   -2.6304 C   0  0  0  0  0  0  0  0  0  0  0  0
   -0.1900   -3.2598   -1.8898 C   0  0  0  0  0  0  0  0  0  0  0  0
   -1.5061   -0.7493   -0.0739 N   0  0  0  0  0  0  0  0  0  0  0  0
   -2.5416    0.1812    0.0531 C   0  0  0  0  0  0  0  0  0  0  0  0
   -3.7312   -0.1192    0.1772 O   0  0  0  0  0  0  0  0  0  0  0  0
   -2.2283    1.6326   -0.0073 C   0  0  0  0  0  0  0  0  0  0  0  0
   -2.9361    2.4234   -0.9264 C   0  0  0  0  0  0  0  0  0  0  0  0
   -2.7347    3.8074   -0.9625 C   0  0  0  0  0  0  0  0  0  0  0  0
   -1.8168    4.3882   -0.0799 C   0  0  0  0  0  0  0  0  0  0  0  0
   -1.1411    3.6133    0.8764 C   0  0  0  0  0  0  0  0  0  0  0  0
   -1.3503    2.2302    0.9063 C   0  0  0  0  0  0  0  0  0  0  0  0
   -0.1911    4.2713    1.8341 C   0  0  0  0  0  0  0  0  0  0  0  0
   -3.4804    4.6587   -1.9512 C   0  0  0  0  0  0  0  0  0  0  0  0
   -0.2109   -0.3593   -0.5176 N   0  0  0  0  0  0  0  0  0  0  0  0
    0.8452   -0.2900    0.3843 C   0  0  0  0  0  0  0  0  0  0  0  0
    0.6933   -0.5510    1.5702 O   0  0  0  0  0  0  0  0  0  0  0  0
    2.1889    0.1516   -0.1650 C   0  0  0  0  0  0  0  0  0  0  0  0
    3.2734    0.5413    0.6786 C   0  0  0  0  0  0  0  0  0  0  0  0
    4.4835    0.9973    0.0887 C   0  0  0  0  0  0  0  0  0  0  0  0
    4.6254    1.0239   -1.2995 C   0  0  0  0  0  0  0  0  0  0  0  0
    3.5853    0.5908   -2.1209 C   0  0  0  0  0  0  0  0  0  0  0  0
    2.3835    0.1580   -1.5609 C   0  0  0  0  0  0  0  0  0  0  0  0
    5.4522    1.4238    0.9606 O   0  0  0  0  0  0  0  0  0  0  0  0
    6.7521    1.6670    0.4371 C   0  0  0  0  0  0  0  0  0  0  0  0
    3.1963    0.4888    2.1976 C   0  0  0  0  0  0  0  0  0  0  0  0
    2.5230    1.7221    2.7752 C   0  0  0  0  0  0  0  0  0  0  0  0
   -3.7256   -3.8245    1.4178 H   0  0  0  0  0  0  0  0  0  0  0  0
   -3.0633   -3.4561    3.0274 H   0  0  0  0  0  0  0  0  0  0  0  0
   -3.3292   -5.1379    2.5283 H   0  0  0  0  0  0  0  0  0  0  0  0
   -0.9379   -4.5537    2.4569 H   0  0  0  0  0  0  0  0  0  0  0  0
   -1.5086   -5.0082    0.8822 H   0  0  0  0  0  0  0  0  0  0  0  0
   -1.0869   -2.1997    1.9599 H   0  0  0  0  0  0  0  0  0  0  0  0
    0.0138   -3.0197    0.8729 H   0  0  0  0  0  0  0  0  0  0  0  0
   -2.8418   -2.2920    0.1441 H   0  0  0  0  0  0  0  0  0  0  0  0
   -2.5719   -4.5440   -2.6386 H   0  0  0  0  0  0  0  0  0  0  0  0
   -2.0174   -5.0186   -1.0559 H   0  0  0  0  0  0  0  0  0  0  0  0
   -3.4911   -4.0429   -1.2146 H   0  0  0  0  0  0  0  0  0  0  0  0
   -2.1906   -2.4437   -3.6162 H   0  0  0  0  0  0  0  0  0  0  0  0
   -1.6314   -1.0355   -2.7296 H   0  0  0  0  0  0  0  0  0  0  0  0
   -3.2506   -1.6897   -2.4123 H   0  0  0  0  0  0  0  0  0  0  0  0
    0.4515   -2.3776   -1.9595 H   0  0  0  0  0  0  0  0  0  0  0  0
    0.2517   -3.9488   -1.1586 H   0  0  0  0  0  0  0  0  0  0  0  0
   -0.1443   -3.7654   -2.8622 H   0  0  0  0  0  0  0  0  0  0  0  0
   -3.6569    1.9512   -1.5949 H   0  0  0  0  0  0  0  0  0  0  0  0
   -1.6529    5.4651   -0.1075 H   0  0  0  0  0  0  0  0  0  0  0  0
   -0.8590    1.6125    1.6591 H   0  0  0  0  0  0  0  0  0  0  0  0
   -0.0773    3.6841    2.7523 H   0  0  0  0  0  0  0  0  0  0  0  0
   -0.5674    5.2584    2.1300 H   0  0  0  0  0  0  0  0  0  0  0  0
    0.7929    4.3922    1.3671 H   0  0  0  0  0  0  0  0  0  0  0  0
   -2.8384    4.9006   -2.8039 H   0  0  0  0  0  0  0  0  0  0  0  0
   -4.3732    4.1467   -2.3248 H   0  0  0  0  0  0  0  0  0  0  0  0
   -3.8153    5.5897   -1.4825 H   0  0  0  0  0  0  0  0  0  0  0  0
   -0.1884    0.1497   -1.3923 H   0  0  0  0  0  0  0  0  0  0  0  0
    5.5335    1.3775   -1.7829 H   0  0  0  0  0  0  0  0  0  0  0  0
    3.7136    0.5947   -3.2047 H   0  0  0  0  0  0  0  0  0  0  0  0
    1.6230   -0.1927   -2.2535 H   0  0  0  0  0  0  0  0  0  0  0  0
    7.4107    1.8921    1.2824 H   0  0  0  0  0  0  0  0  0  0  0  0
    6.7476    2.5460   -0.2185 H   0  0  0  0  0  0  0  0  0  0  0  0
    7.1495    0.7850   -0.0739 H   0  0  0  0  0  0  0  0  0  0  0  0
    4.1863    0.3815    2.6456 H   0  0  0  0  0  0  0  0  0  0  0  0
    2.6938   -0.4234    2.5190 H   0  0  0  0  0  0  0  0  0  0  0  0
    3.1909    2.5955    2.7258 H   0  0  0  0  0  0  0  0  0  0  0  0
    2.2561    1.5618    3.8292 H   0  0  0  0  0  0  0  0  0  0  0  0
    1.6013    1.9789    2.2362 H   0  0  0  0  0  0  0  0  0  0  0  0
  1  2  1  0
  2  3  1  0
  3  4  1  0
  4  5  1  0
  5  6  1  0
  5  7  1  0
  5  8  1  0
  4  9  1  0
  9 10  1  0
 10 11  2  0
 10 12  1  0
 12 13  2  0
 13 14  1  0
 14 15  2  0
 15 16  1  0
 16 17  2  0
 16 18  1  0
 14 19  1  0
  9 20  1  0
 20 21  1  0
 21 22  2  0
 21 23  1  0
 23 24  2  0
 24 25  1  0
 25 26  2  0
 26 27  1  0
 27 28  2  0
 25 29  1  0
 29 30  1  0
 24 31  1  0
 31 32  1  0
 17 12  1  0
 28 23  1  0
  1 33  1  0
  1 34  1  0
  1 35  1  0
  2 36  1  0
  2 37  1  0
  3 38  1  0
  3 39  1  0
  4 40  1  1
  6 41  1  0
  6 42  1  0
  6 43  1  0
  7 44  1  0
  7 45  1  0
  7 46  1  0
  8 47  1  0
  8 48  1  0
  8 49  1  0
 13 50  1  0
 15 51  1  0
 17 52  1  0
 18 53  1  0
 18 54  1  0
 18 55  1  0
 19 56  1  0
 19 57  1  0
 19 58  1  0
 20 59  1  0
 26 60  1  0
 27 61  1  0
 28 62  1  0
 30 63  1  0
 30 64  1  0
 30 65  1  0
 31 66  1  0
 31 67  1  0
 32 68  1  0
 32 69  1  0
 32 70  1  0
M  END
$$$$
