
     RDKit          3D

 30 31  0  0  0  0  0  0  0  0999 V2000
   -3.2746   -1.8251   -0.4699 C   0  0  0  0  0  0  0  0  0  0  0  0
   -4.5719   -1.3694   -0.2302 C   0  0  0  0  0  0  0  0  0  0  0  0
   -4.7685   -0.0730    0.2453 C   0  0  0  0  0  0  0  0  0  0  0  0
   -3.6729    0.7656    0.4682 C   0  0  0  0  0  0  0  0  0  0  0  0
   -2.3728    0.3077    0.2242 C   0  0  0  0  0  0  0  0  0  0  0  0
   -2.1732   -0.9913   -0.2471 C   0  0  0  0  0  0  0  0  0  0  0  0
   -0.9501   -1.5681   -0.5334 O   0  0  0  0  0  0  0  0  0  0  0  0
    0.1870   -0.8165   -0.3592 C   0  0  0  0  0  0  0  0  0  0  0  0
    0.8905   -0.8672    0.8523 C   0  0  0  0  0  0  0  0  0  0  0  0
    2.0755   -0.1378    1.0146 C   0  0  0  0  0  0  0  0  0  0  0  0
    2.5847    0.6356   -0.0383 C   0  0  0  0  0  0  0  0  0  0  0  0
    1.8963    0.6590   -1.2606 C   0  0  0  0  0  0  0  0  0  0  0  0
    0.7115   -0.0705   -1.4247 C   0  0  0  0  0  0  0  0  0  0  0  0
   -0.1988   -0.0118   -3.3114 I   0  0  0  0  0  0  0  0  0  0  0  0
    3.8875    1.3870    0.1189 C   0  0  0  0  0  0  0  0  0  0  0  0
    5.0962    0.6063   -0.3375 C   0  0  0  0  0  0  0  0  0  0  0  0
    5.1440   -0.5450   -0.7373 O   0  0  0  0  0  0  0  0  0  0  0  0
    6.2273    1.3427   -0.2601 O   0  0  0  0  0  0  0  0  0  0  0  0
    0.2457   -2.0346    2.4729 I   0  0  0  0  0  0  0  0  0  0  0  0
   -3.9095    2.7213    1.1752 I   0  0  0  0  0  0  0  0  0  0  0  0
   -6.0398    0.3718    0.4815 O   0  0  0  0  0  0  0  0  0  0  0  0
   -3.1171   -2.8358   -0.8410 H   0  0  0  0  0  0  0  0  0  0  0  0
   -5.4065   -2.0376   -0.4143 H   0  0  0  0  0  0  0  0  0  0  0  0
   -1.5345    0.9700    0.4045 H   0  0  0  0  0  0  0  0  0  0  0  0
    2.6202   -0.1852    1.9560 H   0  0  0  0  0  0  0  0  0  0  0  0
    2.3033    1.2336   -2.0908 H   0  0  0  0  0  0  0  0  0  0  0  0
    4.0307    1.6626    1.1709 H   0  0  0  0  0  0  0  0  0  0  0  0
    3.8364    2.3173   -0.4589 H   0  0  0  0  0  0  0  0  0  0  0  0
    6.9243    0.7314   -0.5779 H   0  0  0  0  0  0  0  0  0  0  0  0
   -6.6706   -0.3429    0.2938 H   0  0  0  0  0  0  0  0  0  0  0  0
  1  2  2  0
  2  3  1  0
  3  4  2  0
  4  5  1  0
  5  6  2  0
  6  7  1  0
  7  8  1  0
  8  9  2  0
  9 10  1  0
 10 11  2  0
 11 12  1  0
 12 13  2  0
 13 14  1  0
 11 15  1  0
 15 16  1  0
 16 17  2  0
 16 18  1  0
  9 19  1  0
  4 20  1  0
  3 21  1  0
  6  1  1  0
 13  8  1  0
  1 22  1  0
  2 23  1  0
  5 24  1  0
 10 25  1  0
 12 26  1  0
 15 27  1  0
 15 28  1  0
 18 29  1  0
 21 30  1  0
M  END
$$$$
