
     RDKit          3D

 26 26  0  0  0  0  0  0  0  0999 V2000
   -3.0914   -0.6020    1.0065 C   0  0  0  0  0  0  0  0  0  0  0  0
   -2.1587    0.4889    1.2551 N   0  0  0  0  0  0  0  0  0  0  0  0
   -1.9594    1.3380    0.0660 C   0  0  0  0  0  0  0  0  0  0  0  0
   -1.1026    0.7780   -1.1038 C   0  0  1  0  0  0  0  0  0  0  0  0
    0.2945    0.3494   -0.6918 C   0  0  0  0  0  0  0  0  0  0  0  0
    0.5677   -0.9672   -0.2869 C   0  0  0  0  0  0  0  0  0  0  0  0
    1.8542   -1.3190    0.0974 C   0  0  0  0  0  0  0  0  0  0  0  0
    2.8828   -0.3822    0.0938 C   0  0  0  0  0  0  0  0  0  0  0  0
    2.6356    0.9273   -0.2953 C   0  0  0  0  0  0  0  0  0  0  0  0
    1.3419    1.2907   -0.6852 C   0  0  0  0  0  0  0  0  0  0  0  0
    4.1243   -0.7990    0.4865 O   0  0  0  0  0  0  0  0  0  0  0  0
    2.1033   -2.6040    0.4860 O   0  0  0  0  0  0  0  0  0  0  0  0
   -1.7931   -0.2654   -1.7944 O   0  0  0  0  0  0  0  0  0  0  0  0
   -3.2851   -1.1268    1.9475 H   0  0  0  0  0  0  0  0  0  0  0  0
   -4.0532   -0.2312    0.6380 H   0  0  0  0  0  0  0  0  0  0  0  0
   -2.6933   -1.3365    0.3020 H   0  0  0  0  0  0  0  0  0  0  0  0
   -1.2615    0.0983    1.5443 H   0  0  0  0  0  0  0  0  0  0  0  0
   -2.9400    1.6425   -0.3211 H   0  0  0  0  0  0  0  0  0  0  0  0
   -1.4750    2.2545    0.4254 H   0  0  0  0  0  0  0  0  0  0  0  0
   -0.9996    1.5819   -1.8439 H   0  0  0  0  0  0  0  0  0  0  0  0
   -0.2171   -1.7191   -0.2611 H   0  0  0  0  0  0  0  0  0  0  0  0
    3.4230    1.6742   -0.3011 H   0  0  0  0  0  0  0  0  0  0  0  0
    1.1529    2.3207   -0.9837 H   0  0  0  0  0  0  0  0  0  0  0  0
    4.7275   -0.0373    0.4434 H   0  0  0  0  0  0  0  0  0  0  0  0
    3.0549   -2.6116    0.7119 H   0  0  0  0  0  0  0  0  0  0  0  0
   -1.1325   -0.7432   -2.3246 H   0  0  0  0  0  0  0  0  0  0  0  0
  1  2  1  0
  2  3  1  0
  3  4  1  0
  4  5  1  0
  5  6  2  0
  6  7  1  0
  7  8  2  0
  8  9  1  0
  9 10  2  0
  8 11  1  0
  7 12  1  0
  4 13  1  0
 10  5  1  0
  1 14  1  0
  1 15  1  0
  1 16  1  0
  2 17  1  0
  3 18  1  0
  3 19  1  0
  4 20  1  6
  6 21  1  0
  9 22  1  0
 10 23  1  0
 11 24  1  0
 12 25  1  0
 13 26  1  0
M  END
$$$$
