
     RDKit          3D

 64 67  0  0  0  0  0  0  0  0999 V2000
   -2.6708    4.2046    1.1678 C   0  0  0  0  0  0  0  0  0  0  0  0
   -2.1699    4.4054   -0.2295 C   0  0  0  0  0  0  0  0  0  0  0  0
   -1.9541    5.5362   -0.6706 O   0  0  0  0  0  0  0  0  0  0  0  0
   -1.9775    3.0223   -1.2990 S   0  0  0  0  0  0  0  0  0  0  0  0
   -1.8205    1.5615   -0.2102 C   0  0  0  0  0  0  0  0  0  0  0  0
   -3.2417    0.9723   -0.0343 C   0  0  0  0  0  0  0  0  0  0  0  0
   -3.2746   -0.3401    0.7160 C   0  0  0  0  0  0  0  0  0  0  0  0
   -4.1612   -0.5247    1.7167 C   0  0  0  0  0  0  0  0  0  0  0  0
   -4.3347   -1.8444    2.3674 C   0  0  0  0  0  0  0  0  0  0  0  0
   -5.1025   -1.9527    3.3198 O   0  0  0  0  0  0  0  0  0  0  0  0
   -3.6206   -3.0325    1.7703 C   0  0  0  0  0  0  0  0  0  0  0  0
   -2.2507   -2.6046    1.2650 C   0  0  0  0  0  0  0  0  0  0  0  0
   -2.2955   -1.4204    0.2421 C   0  0  0  0  0  0  0  0  0  0  0  0
   -2.7904   -1.9704   -1.1182 C   0  0  0  0  0  0  0  0  0  0  0  0
   -0.8532   -0.7634    0.1383 C   0  0  0  0  0  0  0  0  0  0  0  0
    0.2436   -1.7862   -0.2227 C   0  0  0  0  0  0  0  0  0  0  0  0
    1.6283   -1.1577   -0.3165 C   0  0  0  0  0  0  0  0  0  0  0  0
    1.7047   -0.0297   -1.3727 C   0  0  0  0  0  0  0  0  0  0  0  0
    1.5002   -0.6374   -2.7836 C   0  0  0  0  0  0  0  0  0  0  0  0
    0.6187    1.0467   -1.0498 C   0  0  0  0  0  0  0  0  0  0  0  0
    1.2465    1.8734    0.0851 C   0  0  0  0  0  0  0  0  0  0  0  0
    2.7766    1.7909   -0.1116 C   0  0  0  0  0  0  0  0  0  0  0  0
    3.0112    0.8362   -1.2918 C   0  0  0  0  0  0  0  0  0  0  0  0
    3.0227    1.6982   -2.4642 O   0  0  0  0  0  0  0  0  0  0  0  0
    4.3768    0.1113   -1.3207 C   0  0  0  0  0  0  0  0  0  0  0  0
    5.1131    0.2461   -2.3153 O   0  0  0  0  0  0  0  0  0  0  0  0
    4.8570   -0.8006   -0.1809 C   0  0  0  0  0  0  0  0  0  0  0  0
    4.3477   -0.5317    1.1079 O   0  0  0  0  0  0  0  0  0  0  0  0
    5.0327   -1.2498    2.1249 C   0  0  0  0  0  0  0  0  0  0  0  0
   -0.8210    0.4988   -0.7847 C   0  0  0  0  0  0  0  0  0  0  0  0
   -3.6794    3.7862    1.1608 H   0  0  0  0  0  0  0  0  0  0  0  0
   -2.7273    5.1847    1.6593 H   0  0  0  0  0  0  0  0  0  0  0  0
   -1.9977    3.5913    1.7686 H   0  0  0  0  0  0  0  0  0  0  0  0
   -1.4342    1.8729    0.7607 H   0  0  0  0  0  0  0  0  0  0  0  0
   -3.8820    1.7032    0.4836 H   0  0  0  0  0  0  0  0  0  0  0  0
   -3.7016    0.8099   -1.0224 H   0  0  0  0  0  0  0  0  0  0  0  0
   -4.8488    0.2408    2.0613 H   0  0  0  0  0  0  0  0  0  0  0  0
   -4.2472   -3.4355    0.9602 H   0  0  0  0  0  0  0  0  0  0  0  0
   -3.5100   -3.8108    2.5390 H   0  0  0  0  0  0  0  0  0  0  0  0
   -1.7604   -3.4805    0.8231 H   0  0  0  0  0  0  0  0  0  0  0  0
   -1.6472   -2.3047    2.1330 H   0  0  0  0  0  0  0  0  0  0  0  0
   -2.9153   -1.1871   -1.8760 H   0  0  0  0  0  0  0  0  0  0  0  0
   -3.7676   -2.4729   -1.0327 H   0  0  0  0  0  0  0  0  0  0  0  0
   -2.0957   -2.7030   -1.5487 H   0  0  0  0  0  0  0  0  0  0  0  0
   -0.5931   -0.4126    1.1506 H   0  0  0  0  0  0  0  0  0  0  0  0
    0.0113   -2.2993   -1.1589 H   0  0  0  0  0  0  0  0  0  0  0  0
    0.2963   -2.5688    0.5440 H   0  0  0  0  0  0  0  0  0  0  0  0
    2.3477   -1.9531   -0.5537 H   0  0  0  0  0  0  0  0  0  0  0  0
    1.8946   -0.7829    0.6746 H   0  0  0  0  0  0  0  0  0  0  0  0
    1.5723    0.1093   -3.5807 H   0  0  0  0  0  0  0  0  0  0  0  0
    0.5021   -1.0796   -2.8987 H   0  0  0  0  0  0  0  0  0  0  0  0
    2.2399   -1.4221   -2.9962 H   0  0  0  0  0  0  0  0  0  0  0  0
    0.5433    1.7055   -1.9265 H   0  0  0  0  0  0  0  0  0  0  0  0
    0.9173    2.9214    0.0447 H   0  0  0  0  0  0  0  0  0  0  0  0
    0.9772    1.4847    1.0812 H   0  0  0  0  0  0  0  0  0  0  0  0
    3.1816    2.7897   -0.3167 H   0  0  0  0  0  0  0  0  0  0  0  0
    3.2298    1.4681    0.8275 H   0  0  0  0  0  0  0  0  0  0  0  0
    3.9427    1.6906   -2.8151 H   0  0  0  0  0  0  0  0  0  0  0  0
    5.9519   -0.6877   -0.1583 H   0  0  0  0  0  0  0  0  0  0  0  0
    4.6133   -1.8316   -0.4677 H   0  0  0  0  0  0  0  0  0  0  0  0
    5.0214   -2.3253    1.9290 H   0  0  0  0  0  0  0  0  0  0  0  0
    4.5394   -1.0569    3.0809 H   0  0  0  0  0  0  0  0  0  0  0  0
    6.0641   -0.9018    2.2003 H   0  0  0  0  0  0  0  0  0  0  0  0
   -1.1798    0.2006   -1.7755 H   0  0  0  0  0  0  0  0  0  0  0  0
  1  2  1  0
  2  3  2  0
  2  4  1  0
  4  5  1  0
  5  6  1  0
  6  7  1  0
  7  8  2  0
  8  9  1  0
  9 10  2  0
  9 11  1  0
 11 12  1  0
 12 13  1  0
 13 14  1  0
 13 15  1  0
 15 16  1  0
 16 17  1  0
 17 18  1  0
 18 19  1  0
 18 20  1  0
 20 21  1  0
 21 22  1  0
 22 23  1  0
 23 24  1  0
 23 25  1  0
 25 26  2  0
 25 27  1  0
 27 28  1  0
 28 29  1  0
 20 30  1  0
 30  5  1  0
 13  7  1  0
 30 15  1  0
 23 18  1  0
  1 31  1  0
  1 32  1  0
  1 33  1  0
  5 34  1  0
  6 35  1  0
  6 36  1  0
  8 37  1  0
 11 38  1  0
 11 39  1  0
 12 40  1  0
 12 41  1  0
 14 42  1  0
 14 43  1  0
 14 44  1  0
 15 45  1  0
 16 46  1  0
 16 47  1  0
 17 48  1  0
 17 49  1  0
 19 50  1  0
 19 51  1  0
 19 52  1  0
 20 53  1  0
 21 54  1  0
 21 55  1  0
 22 56  1  0
 22 57  1  0
 24 58  1  0
 27 59  1  0
 27 60  1  0
 29 61  1  0
 29 62  1  0
 29 63  1  0
 30 64  1  0
M  END
$$$$
