
     RDKit          3D

 71 75  0  0  0  0  0  0  0  0999 V2000
    8.6541   -0.5182    1.8218 C   0  0  0  0  0  0  0  0  0  0  0  0
    9.2416    0.7197    1.6149 C   0  0  0  0  0  0  0  0  0  0  0  0
    8.8207    1.5034    0.5415 C   0  0  0  0  0  0  0  0  0  0  0  0
    7.8444    0.9939   -0.3179 C   0  0  0  0  0  0  0  0  0  0  0  0
    7.3007   -0.2305   -0.1227 N   0  0  0  0  0  4  0  0  0  0  0  0
    7.6727   -0.9721    0.9580 C   0  0  0  0  0  0  0  0  0  0  0  0
    6.2348   -0.6596   -1.0664 C   0  0  1  0  0  0  0  0  0  0  0  0
    5.9934   -2.1658   -1.1973 C   0  0  1  0  0  0  0  0  0  0  0  0
    4.7003   -2.3588   -0.4213 C   0  0  1  0  0  0  0  0  0  0  0  0
    3.9947   -1.0165   -0.6578 C   0  0  2  0  0  0  0  0  0  0  0  0
    5.0283   -0.0219   -0.6497 O   0  0  0  0  0  0  0  0  0  0  0  0
    2.9438   -0.7179    0.3979 C   0  0  0  0  0  0  0  0  0  0  0  0
    1.9917   -1.7593    0.3221 O   0  0  0  0  0  0  0  0  0  0  0  0
    0.8900   -1.8372    1.5062 P   0  0  0  0  0  5  0  0  0  0  0  0
    1.6677   -1.7739    2.8129 O   0  0  0  0  0  0  0  0  0  0  0  0
   -0.0399   -2.9708    1.1488 O   0  0  0  0  0  1  0  0  0  0  0  0
    0.1639   -0.4410    1.2699 O   0  0  0  0  0  0  0  0  0  0  0  0
   -0.6866    0.0386    0.0274 P   0  0  0  0  0  5  0  0  0  0  0  0
   -0.8219    1.5292   -0.1515 O   0  0  0  0  0  0  0  0  0  0  0  0
   -0.0522   -0.6622   -1.2546 O   0  0  0  0  0  0  0  0  0  0  0  0
   -2.1085   -0.7189    0.1149 O   0  0  0  0  0  0  0  0  0  0  0  0
   -3.1331   -0.2640   -0.7481 C   0  0  0  0  0  0  0  0  0  0  0  0
   -4.4078   -1.0848   -0.5333 C   0  0  2  0  0  0  0  0  0  0  0  0
   -5.4665   -0.7199   -1.5704 C   0  0  2  0  0  0  0  0  0  0  0  0
   -6.7499   -1.0860   -0.8502 C   0  0  2  0  0  0  0  0  0  0  0  0
   -6.4272   -0.6797    0.5982 C   0  0  1  0  0  0  0  0  0  0  0  0
   -4.9966   -0.7761    0.7433 O   0  0  0  0  0  0  0  0  0  0  0  0
   -6.8245    0.6708    0.9456 N   0  0  0  0  0  0  0  0  0  0  0  0
   -6.0076    1.7118    1.3099 C   0  0  0  0  0  0  0  0  0  0  0  0
   -6.6865    2.8344    1.5048 N   0  0  0  0  0  0  0  0  0  0  0  0
   -7.9979    2.4768    1.3309 C   0  0  0  0  0  0  0  0  0  0  0  0
   -9.1904    3.2071    1.4333 C   0  0  0  0  0  0  0  0  0  0  0  0
  -10.3515    2.5830    1.1548 N   0  0  0  0  0  0  0  0  0  0  0  0
  -10.3146    1.2739    0.8199 C   0  0  0  0  0  0  0  0  0  0  0  0
   -9.2387    0.4766    0.6917 N   0  0  0  0  0  0  0  0  0  0  0  0
   -8.1042    1.1469    0.9714 C   0  0  0  0  0  0  0  0  0  0  0  0
   -9.2204    4.5447    1.7807 N   0  0  0  0  0  0  0  0  0  0  0  0
   -6.9553   -2.5104   -0.9566 O   0  0  0  0  0  0  0  0  0  0  0  0
   -5.3298   -1.4443   -2.7850 O   0  0  0  0  0  0  0  0  0  0  0  0
    4.0074   -3.4923   -0.9175 O   0  0  0  0  0  0  0  0  0  0  0  0
    5.7782   -2.5186   -2.5736 O   0  0  0  0  0  0  0  0  0  0  0  0
    9.4832    2.8062    0.2882 C   0  0  0  0  0  0  0  0  0  0  0  0
   10.5788    3.0508    0.7830 O   0  0  0  0  0  0  0  0  0  0  0  0
    8.8327    3.7210   -0.5102 N   0  0  0  0  0  0  0  0  0  0  0  0
    8.9600   -1.1231    2.6711 H   0  0  0  0  0  0  0  0  0  0  0  0
   10.0180    1.0871    2.2905 H   0  0  0  0  0  0  0  0  0  0  0  0
    7.4916    1.5549   -1.1791 H   0  0  0  0  0  0  0  0  0  0  0  0
    7.1748   -1.9193    1.1294 H   0  0  0  0  0  0  0  0  0  0  0  0
    6.5124   -0.2432   -2.0478 H   0  0  0  0  0  0  0  0  0  0  0  0
    6.8056   -2.8025   -0.8489 H   0  0  0  0  0  0  0  0  0  0  0  0
    4.9287   -2.5047    0.6385 H   0  0  0  0  0  0  0  0  0  0  0  0
    3.5059   -1.0141   -1.6479 H   0  0  0  0  0  0  0  0  0  0  0  0
    2.4703    0.2564    0.2072 H   0  0  0  0  0  0  0  0  0  0  0  0
    3.4051   -0.6554    1.3943 H   0  0  0  0  0  0  0  0  0  0  0  0
   -0.5333   -1.5127   -1.4642 H   0  0  0  0  0  0  0  0  0  0  0  0
   -3.3342    0.7908   -0.5203 H   0  0  0  0  0  0  0  0  0  0  0  0
   -2.7817   -0.3510   -1.7833 H   0  0  0  0  0  0  0  0  0  0  0  0
   -4.1655   -2.1568   -0.5476 H   0  0  0  0  0  0  0  0  0  0  0  0
   -5.4467    0.3577   -1.7849 H   0  0  0  0  0  0  0  0  0  0  0  0
   -7.6286   -0.6062   -1.2882 H   0  0  0  0  0  0  0  0  0  0  0  0
   -6.8874   -1.3509    1.3412 H   0  0  0  0  0  0  0  0  0  0  0  0
   -4.9362    1.5908    1.4109 H   0  0  0  0  0  0  0  0  0  0  0  0
  -11.2703    0.7983    0.6354 H   0  0  0  0  0  0  0  0  0  0  0  0
   -8.3274    5.0174    1.6296 H   0  0  0  0  0  0  0  0  0  0  0  0
  -10.0726    5.0198    1.5044 H   0  0  0  0  0  0  0  0  0  0  0  0
   -6.5678   -2.7697   -1.8158 H   0  0  0  0  0  0  0  0  0  0  0  0
   -5.5484   -0.8393   -3.5279 H   0  0  0  0  0  0  0  0  0  0  0  0
    3.2725   -3.6912   -0.2801 H   0  0  0  0  0  0  0  0  0  0  0  0
    5.0909   -3.2274   -2.5571 H   0  0  0  0  0  0  0  0  0  0  0  0
    9.3307    4.6192   -0.5761 H   0  0  0  0  0  0  0  0  0  0  0  0
    7.8219    3.7870   -0.5644 H   0  0  0  0  0  0  0  0  0  0  0  0
  1  2  2  0
  2  3  1  0
  3  4  2  0
  4  5  1  0
  5  6  2  0
  5  7  1  0
  7  8  1  0
  8  9  1  0
  9 10  1  0
 10 11  1  0
 10 12  1  0
 12 13  1  0
 13 14  1  0
 14 15  2  0
 14 16  1  0
 14 17  1  0
 17 18  1  0
 18 19  2  0
 18 20  1  0
 18 21  1  0
 21 22  1  0
 22 23  1  0
 23 24  1  0
 24 25  1  0
 25 26  1  0
 26 27  1  0
 26 28  1  0
 28 29  1  0
 29 30  2  0
 30 31  1  0
 31 32  2  0
 32 33  1  0
 33 34  2  0
 34 35  1  0
 35 36  2  0
 32 37  1  0
 25 38  1  0
 24 39  1  0
  9 40  1  0
  8 41  1  0
  3 42  1  0
 42 43  2  0
 42 44  1  0
  6  1  1  0
 11  7  1  0
 27 23  1  0
 36 28  1  0
 36 31  1  0
  1 45  1  0
  2 46  1  0
  4 47  1  0
  6 48  1  0
  7 49  1  6
  8 50  1  1
  9 51  1  1
 10 52  1  6
 12 53  1  0
 12 54  1  0
 20 55  1  0
 22 56  1  0
 22 57  1  0
 23 58  1  1
 24 59  1  6
 25 60  1  6
 26 61  1  1
 29 62  1  0
 34 63  1  0
 37 64  1  0
 37 65  1  0
 38 66  1  0
 39 67  1  0
 40 68  1  0
 41 69  1  0
 44 70  1  0
 44 71  1  0
M  CHG  2   5   1  16  -1
M  END
$$$$
