
     RDKit          3D

 35 36  0  0  0  0  0  0  0  0999 V2000
    4.1465   -1.9117    0.9571 C   0  0  0  0  0  0  0  0  0  0  0  0
    5.4568   -1.5064    0.6964 C   0  0  0  0  0  0  0  0  0  0  0  0
    5.6860   -0.2931    0.0580 C   0  0  0  0  0  0  0  0  0  0  0  0
    4.6133    0.5143   -0.3301 C   0  0  0  0  0  0  0  0  0  0  0  0
    3.2996    0.1069   -0.0738 C   0  0  0  0  0  0  0  0  0  0  0  0
    3.0654   -1.1104    0.5758 C   0  0  0  0  0  0  0  0  0  0  0  0
    1.8262   -1.6263    0.9006 O   0  0  0  0  0  0  0  0  0  0  0  0
    0.7041   -0.9121    0.5569 C   0  0  0  0  0  0  0  0  0  0  0  0
    0.0524   -1.1646   -0.6583 C   0  0  0  0  0  0  0  0  0  0  0  0
   -1.1270   -0.4816   -0.9812 C   0  0  0  0  0  0  0  0  0  0  0  0
   -1.6853    0.4431   -0.0877 C   0  0  0  0  0  0  0  0  0  0  0  0
   -1.0452    0.6776    1.1373 C   0  0  0  0  0  0  0  0  0  0  0  0
    0.1357   -0.0024    1.4625 C   0  0  0  0  0  0  0  0  0  0  0  0
    0.9741    0.3754    3.3478 I   0  0  0  0  0  0  0  0  0  0  0  0
   -2.9890    1.1353   -0.4248 C   0  0  0  0  0  0  0  0  0  0  0  0
   -4.2369    0.4247    0.1329 C   0  0  1  0  0  0  0  0  0  0  0  0
   -5.4877    1.2548   -0.1785 C   0  0  0  0  0  0  0  0  0  0  0  0
   -6.4520    0.8919   -0.8396 O   0  0  0  0  0  0  0  0  0  0  0  0
   -5.4707    2.4802    0.3837 O   0  0  0  0  0  0  0  0  0  0  0  0
   -4.3960   -0.9356   -0.4409 N   0  0  0  0  0  0  0  0  0  0  0  0
    0.7541   -2.5750   -2.0410 I   0  0  0  0  0  0  0  0  0  0  0  0
    4.9278    2.3417   -1.2896 I   0  0  0  0  0  0  0  0  0  0  0  0
    6.9899    0.0498   -0.1571 O   0  0  0  0  0  0  0  0  0  0  0  0
    3.9683   -2.8577    1.4624 H   0  0  0  0  0  0  0  0  0  0  0  0
    6.2918   -2.1339    0.9943 H   0  0  0  0  0  0  0  0  0  0  0  0
    2.4734    0.7420   -0.3829 H   0  0  0  0  0  0  0  0  0  0  0  0
   -1.6426   -0.6901   -1.9182 H   0  0  0  0  0  0  0  0  0  0  0  0
   -1.4859    1.3805    1.8446 H   0  0  0  0  0  0  0  0  0  0  0  0
   -3.0725    1.2498   -1.5159 H   0  0  0  0  0  0  0  0  0  0  0  0
   -2.9391    2.1642   -0.0418 H   0  0  0  0  0  0  0  0  0  0  0  0
   -4.1686    0.3172    1.2216 H   0  0  0  0  0  0  0  0  0  0  0  0
   -6.3273    2.8733    0.1132 H   0  0  0  0  0  0  0  0  0  0  0  0
   -5.2693   -1.3339   -0.0799 H   0  0  0  0  0  0  0  0  0  0  0  0
   -4.5631   -0.8480   -1.4468 H   0  0  0  0  0  0  0  0  0  0  0  0
    6.9928    0.9600   -0.5141 H   0  0  0  0  0  0  0  0  0  0  0  0
  1  2  2  0
  2  3  1  0
  3  4  2  0
  4  5  1  0
  5  6  2  0
  6  7  1  0
  7  8  1  0
  8  9  2  0
  9 10  1  0
 10 11  2  0
 11 12  1  0
 12 13  2  0
 13 14  1  0
 11 15  1  0
 15 16  1  0
 16 17  1  0
 17 18  2  0
 17 19  1  0
 16 20  1  0
  9 21  1  0
  4 22  1  0
  3 23  1  0
  6  1  1  0
 13  8  1  0
  1 24  1  0
  2 25  1  0
  5 26  1  0
 10 27  1  0
 12 28  1  0
 15 29  1  0
 15 30  1  0
 16 31  1  1
 19 32  1  0
 20 33  1  0
 20 34  1  0
 23 35  1  0
M  END
$$$$
