
     RDKit          3D

 58 61  0  0  0  0  0  0  0  0999 V2000
    0.8107   -0.2942    0.4924 C   0  0  0  0  0  0  0  0  0  0  0  0
    1.2864    1.0373    0.0264 C   0  0  0  0  0  0  0  0  0  0  0  0
    2.6048    1.4647    0.0905 C   0  0  0  0  0  0  0  0  0  0  0  0
    2.6630    2.7458   -0.3767 N   0  0  0  0  0  0  0  0  0  0  0  0
    1.4154    3.1688   -0.7493 C   0  0  0  0  0  0  0  0  0  0  0  0
    0.5142    2.1237   -0.5344 C   0  0  0  0  0  0  0  0  0  0  0  0
   -0.9257    2.2236   -0.8382 C   0  0  0  0  0  0  0  0  0  0  0  0
   -1.5026    3.3013   -1.0362 O   0  0  0  0  0  0  0  0  0  0  0  0
   -1.5923    1.0249   -0.9453 N   0  0  0  0  0  0  0  0  0  0  0  0
   -3.0137    0.9107   -1.2036 C   0  0  1  0  0  0  0  0  0  0  0  0
   -3.3038   -0.0127   -2.3788 C   0  0  0  0  0  0  0  0  0  0  0  0
   -4.7397   -0.4414   -2.1268 C   0  0  0  0  0  0  0  0  0  0  0  0
   -4.8753   -0.5000   -0.6750 N   0  0  0  0  0  0  0  0  0  0  0  0
   -3.7871    0.2476   -0.0479 C   0  0  0  0  0  0  0  0  0  0  0  0
   -5.8337   -1.3286   -0.1455 C   0  0  0  0  0  0  0  0  0  0  0  0
   -6.5684   -1.9572   -0.9142 O   0  0  0  0  0  0  0  0  0  0  0  0
   -5.9534   -1.4931    1.2194 N   0  0  0  0  0  0  0  0  0  0  0  0
   -5.4939   -0.5761    2.2424 C   0  0  0  0  0  0  0  0  0  0  0  0
   -6.8309   -2.5498    1.6952 C   0  0  0  0  0  0  0  0  0  0  0  0
    1.2053    4.5355   -1.2969 C   0  0  0  0  0  0  0  0  0  0  0  0
    3.8076    0.8819    0.5534 C   0  0  0  0  0  0  0  0  0  0  0  0
    4.4046   -0.1607   -0.0401 C   0  0  0  0  0  0  0  0  0  0  0  0
    5.6206   -0.8101    0.4722 C   0  0  0  0  0  0  0  0  0  0  0  0
    5.9205   -1.8326   -0.4339 C   0  0  0  0  0  0  0  0  0  0  0  0
    7.0095   -2.6698   -0.2832 C   0  0  0  0  0  0  0  0  0  0  0  0
    7.8204   -2.4568    0.8385 C   0  0  0  0  0  0  0  0  0  0  0  0
    7.5200   -1.4346    1.7541 C   0  0  0  0  0  0  0  0  0  0  0  0
    6.4167   -0.5984    1.5861 C   0  0  0  0  0  0  0  0  0  0  0  0
    8.3110   -1.2579    2.8213 F   0  0  0  0  0  0  0  0  0  0  0  0
    4.9856   -1.8658   -1.4615 N   0  0  0  0  0  0  0  0  0  0  0  0
    4.0206   -0.8820   -1.3083 C   0  0  0  0  0  0  0  0  0  0  0  0
    3.0933   -0.6712   -2.0673 O   0  0  0  0  0  0  0  0  0  0  0  0
    0.6318   -0.9584   -0.3624 H   0  0  0  0  0  0  0  0  0  0  0  0
   -0.1174   -0.1978    1.0660 H   0  0  0  0  0  0  0  0  0  0  0  0
    1.5455   -0.7850    1.1448 H   0  0  0  0  0  0  0  0  0  0  0  0
    3.5050    3.3036   -0.4478 H   0  0  0  0  0  0  0  0  0  0  0  0
   -1.0414    0.1756   -0.9511 H   0  0  0  0  0  0  0  0  0  0  0  0
   -3.4443    1.8998   -1.4053 H   0  0  0  0  0  0  0  0  0  0  0  0
   -2.6390   -0.8889   -2.3597 H   0  0  0  0  0  0  0  0  0  0  0  0
   -3.1674    0.4711   -3.3530 H   0  0  0  0  0  0  0  0  0  0  0  0
   -5.4481    0.3050   -2.4957 H   0  0  0  0  0  0  0  0  0  0  0  0
   -4.9544   -1.4031   -2.6039 H   0  0  0  0  0  0  0  0  0  0  0  0
   -3.1666   -0.4485    0.5379 H   0  0  0  0  0  0  0  0  0  0  0  0
   -4.1822    1.0219    0.6149 H   0  0  0  0  0  0  0  0  0  0  0  0
   -5.6701    0.4559    1.9389 H   0  0  0  0  0  0  0  0  0  0  0  0
   -6.0517   -0.7372    3.1704 H   0  0  0  0  0  0  0  0  0  0  0  0
   -4.4363   -0.7566    2.4498 H   0  0  0  0  0  0  0  0  0  0  0  0
   -7.0898   -3.2714    0.9169 H   0  0  0  0  0  0  0  0  0  0  0  0
   -6.3262   -3.0937    2.4999 H   0  0  0  0  0  0  0  0  0  0  0  0
   -7.7535   -2.1012    2.0768 H   0  0  0  0  0  0  0  0  0  0  0  0
    0.5042    5.1007   -0.6723 H   0  0  0  0  0  0  0  0  0  0  0  0
    0.8017    4.4885   -2.3134 H   0  0  0  0  0  0  0  0  0  0  0  0
    2.1412    5.1070   -1.3450 H   0  0  0  0  0  0  0  0  0  0  0  0
    4.2291    1.3204    1.4567 H   0  0  0  0  0  0  0  0  0  0  0  0
    7.2324   -3.4635   -0.9847 H   0  0  0  0  0  0  0  0  0  0  0  0
    8.6895   -3.0852    1.0243 H   0  0  0  0  0  0  0  0  0  0  0  0
    6.2094    0.1751    2.3100 H   0  0  0  0  0  0  0  0  0  0  0  0
    4.9889   -2.5070   -2.2435 H   0  0  0  0  0  0  0  0  0  0  0  0
  1  2  1  0
  2  3  2  0
  3  4  1  0
  4  5  1  0
  5  6  2  0
  6  7  1  0
  7  8  2  0
  7  9  1  0
  9 10  1  0
 10 11  1  0
 11 12  1  0
 12 13  1  0
 13 14  1  0
 13 15  1  0
 15 16  2  0
 15 17  1  0
 17 18  1  0
 17 19  1  0
  5 20  1  0
  3 21  1  0
 21 22  2  0
 22 23  1  0
 23 24  1  0
 24 25  2  0
 25 26  1  0
 26 27  2  0
 27 28  1  0
 27 29  1  0
 24 30  1  0
 30 31  1  0
 31 32  2  0
  6  2  1  0
 14 10  1  0
 31 22  1  0
 28 23  2  0
  1 33  1  0
  1 34  1  0
  1 35  1  0
  4 36  1  0
  9 37  1  0
 10 38  1  6
 11 39  1  0
 11 40  1  0
 12 41  1  0
 12 42  1  0
 14 43  1  0
 14 44  1  0
 18 45  1  0
 18 46  1  0
 18 47  1  0
 19 48  1  0
 19 49  1  0
 19 50  1  0
 20 51  1  0
 20 52  1  0
 20 53  1  0
 21 54  1  0
 25 55  1  0
 26 56  1  0
 28 57  1  0
 30 58  1  0
M  END
$$$$
