
     RDKit          3D

 49 52  0  0  0  0  0  0  0  0999 V2000
    2.3666   -0.4419    1.6939 C   0  0  0  0  0  0  0  0  0  0  0  0
    2.3178    0.4071    0.3978 C   0  0  0  0  0  0  0  0  0  0  0  0
    1.5879    1.7343    0.6957 C   0  0  0  0  0  0  0  0  0  0  0  0
    0.1357    1.7666    0.1788 C   0  0  0  0  0  0  0  0  0  0  0  0
   -0.5963    0.4073    0.2861 C   0  0  0  0  0  0  0  0  0  0  0  0
    0.1835   -0.7404   -0.4604 C   0  0  0  0  0  0  0  0  0  0  0  0
   -0.5185   -1.2580   -1.7287 C   0  0  0  0  0  0  0  0  0  0  0  0
   -1.9878   -1.6374   -1.5143 C   0  0  0  0  0  0  0  0  0  0  0  0
   -2.5861   -0.9577   -0.3077 C   0  0  0  0  0  0  0  0  0  0  0  0
   -3.3757   -1.6513    0.5308 C   0  0  0  0  0  0  0  0  0  0  0  0
   -3.8048   -1.0918    1.8328 C   0  0  0  0  0  0  0  0  0  0  0  0
   -4.5851   -1.7269    2.5375 O   0  0  0  0  0  0  0  0  0  0  0  0
   -3.1770    0.2003    2.2849 C   0  0  0  0  0  0  0  0  0  0  0  0
   -2.9490    1.1206    1.0955 C   0  0  0  0  0  0  0  0  0  0  0  0
   -2.1270    0.4772   -0.0625 C   0  0  0  0  0  0  0  0  0  0  0  0
   -2.4154    1.3587   -1.3043 C   0  0  0  0  0  0  0  0  0  0  0  0
    1.6219   -0.3055   -0.7793 C   0  0  0  0  0  0  0  0  0  0  0  0
    2.6051   -1.4002   -1.1943 C   0  0  0  0  0  0  0  0  0  0  0  0
    3.9952   -0.8264   -0.8685 C   0  0  0  0  0  0  0  0  0  0  0  0
    3.7552    0.5207   -0.1619 C   0  0  0  0  0  0  0  0  0  0  0  0
    3.8655    1.5444   -1.1475 O   0  0  0  0  0  0  0  0  0  0  0  0
    2.7899   -1.4381    1.5340 H   0  0  0  0  0  0  0  0  0  0  0  0
    2.9886    0.0542    2.4485 H   0  0  0  0  0  0  0  0  0  0  0  0
    1.3775   -0.5816    2.1378 H   0  0  0  0  0  0  0  0  0  0  0  0
    1.5764    1.9203    1.7775 H   0  0  0  0  0  0  0  0  0  0  0  0
    2.1128    2.5946    0.2679 H   0  0  0  0  0  0  0  0  0  0  0  0
   -0.4048    2.5440    0.7297 H   0  0  0  0  0  0  0  0  0  0  0  0
    0.1537    2.0913   -0.8691 H   0  0  0  0  0  0  0  0  0  0  0  0
   -0.5394    0.1384    1.3495 H   0  0  0  0  0  0  0  0  0  0  0  0
    0.2271   -1.5937    0.2325 H   0  0  0  0  0  0  0  0  0  0  0  0
   -0.4486   -0.5061   -2.5236 H   0  0  0  0  0  0  0  0  0  0  0  0
    0.0127   -2.1351   -2.1196 H   0  0  0  0  0  0  0  0  0  0  0  0
   -2.5653   -1.3830   -2.4109 H   0  0  0  0  0  0  0  0  0  0  0  0
   -2.0517   -2.7276   -1.4046 H   0  0  0  0  0  0  0  0  0  0  0  0
   -3.6809   -2.6747    0.3418 H   0  0  0  0  0  0  0  0  0  0  0  0
   -3.8578    0.6885    2.9912 H   0  0  0  0  0  0  0  0  0  0  0  0
   -2.2461   -0.0269    2.8130 H   0  0  0  0  0  0  0  0  0  0  0  0
   -3.9386    1.4134    0.7143 H   0  0  0  0  0  0  0  0  0  0  0  0
   -2.4763    2.0466    1.4417 H   0  0  0  0  0  0  0  0  0  0  0  0
   -2.2757    2.4221   -1.0772 H   0  0  0  0  0  0  0  0  0  0  0  0
   -1.7712    1.1301   -2.1558 H   0  0  0  0  0  0  0  0  0  0  0  0
   -3.4524    1.2363   -1.6408 H   0  0  0  0  0  0  0  0  0  0  0  0
    1.5719    0.3948   -1.6285 H   0  0  0  0  0  0  0  0  0  0  0  0
    2.4380   -2.3285   -0.6367 H   0  0  0  0  0  0  0  0  0  0  0  0
    2.5158   -1.6383   -2.2595 H   0  0  0  0  0  0  0  0  0  0  0  0
    4.5230   -1.5206   -0.2048 H   0  0  0  0  0  0  0  0  0  0  0  0
    4.5923   -0.7128   -1.7797 H   0  0  0  0  0  0  0  0  0  0  0  0
    4.5118    0.7065    0.6078 H   0  0  0  0  0  0  0  0  0  0  0  0
    4.0055    2.3858   -0.6811 H   0  0  0  0  0  0  0  0  0  0  0  0
  1  2  1  0
  2  3  1  0
  3  4  1  0
  4  5  1  0
  5  6  1  0
  6  7  1  0
  7  8  1  0
  8  9  1  0
  9 10  2  0
 10 11  1  0
 11 12  2  0
 11 13  1  0
 13 14  1  0
 14 15  1  0
 15 16  1  0
  6 17  1  0
 17 18  1  0
 18 19  1  0
 19 20  1  0
 20 21  1  0
 17  2  1  0
 20  2  1  0
 15  5  1  0
 15  9  1  0
  1 22  1  0
  1 23  1  0
  1 24  1  0
  3 25  1  0
  3 26  1  0
  4 27  1  0
  4 28  1  0
  5 29  1  0
  6 30  1  0
  7 31  1  0
  7 32  1  0
  8 33  1  0
  8 34  1  0
 10 35  1  0
 13 36  1  0
 13 37  1  0
 14 38  1  0
 14 39  1  0
 16 40  1  0
 16 41  1  0
 16 42  1  0
 17 43  1  0
 18 44  1  0
 18 45  1  0
 19 46  1  0
 19 47  1  0
 20 48  1  0
 21 49  1  0
M  END
$$$$
