
     RDKit          3D

 53 56  0  0  0  0  0  0  0  0999 V2000
    5.7257    0.0519   -1.0687 C   0  0  0  0  0  0  0  0  0  0  0  0
    4.3235    0.6036   -1.1154 C   0  0  0  0  0  0  0  0  0  0  0  0
    4.0970    1.6771   -1.6751 O   0  0  0  0  0  0  0  0  0  0  0  0
    3.2176   -0.2667   -0.5246 C   0  0  0  0  0  0  0  0  0  0  0  0
    3.5555   -0.8122    0.8777 C   0  0  0  0  0  0  0  0  0  0  0  0
    2.2110   -1.0320    1.5856 C   0  0  0  0  0  0  0  0  0  0  0  0
    1.1555   -0.7222    0.5180 C   0  0  0  0  0  0  0  0  0  0  0  0
   -0.2405   -0.3685    1.0300 C   0  0  0  0  0  0  0  0  0  0  0  0
   -0.8867   -1.5979    1.7064 C   0  0  0  0  0  0  0  0  0  0  0  0
   -2.3459   -1.4035    2.1317 C   0  0  0  0  0  0  0  0  0  0  0  0
   -3.0768   -0.3996    1.2760 C   0  0  0  0  0  0  0  0  0  0  0  0
   -4.0139    0.3824    1.8379 C   0  0  0  0  0  0  0  0  0  0  0  0
   -4.6027    1.5339    1.1156 C   0  0  0  0  0  0  0  0  0  0  0  0
   -5.5018    2.1854    1.6437 O   0  0  0  0  0  0  0  0  0  0  0  0
   -3.9953    1.9146   -0.2075 C   0  0  0  0  0  0  0  0  0  0  0  0
   -3.5686    0.6646   -0.9618 C   0  0  0  0  0  0  0  0  0  0  0  0
   -2.5890   -0.2534   -0.1653 C   0  0  0  0  0  0  0  0  0  0  0  0
   -2.5923   -1.6125   -0.9091 C   0  0  0  0  0  0  0  0  0  0  0  0
   -1.1370    0.3386   -0.0604 C   0  0  0  0  0  0  0  0  0  0  0  0
   -0.4965    0.6315   -1.4499 C   0  0  0  0  0  0  0  0  0  0  0  0
    1.0130    0.4416   -1.6406 C   0  0  0  0  0  0  0  0  0  0  0  0
    1.8132    0.3663   -0.3438 C   0  0  0  0  0  0  0  0  0  0  0  0
    1.8757    1.7496    0.3473 C   0  0  0  0  0  0  0  0  0  0  0  0
    6.1170    0.1031   -0.0514 H   0  0  0  0  0  0  0  0  0  0  0  0
    6.3755    0.6380   -1.7292 H   0  0  0  0  0  0  0  0  0  0  0  0
    5.7274   -0.9821   -1.4219 H   0  0  0  0  0  0  0  0  0  0  0  0
    3.1376   -1.1232   -1.2071 H   0  0  0  0  0  0  0  0  0  0  0  0
    4.1120   -1.7521    0.8003 H   0  0  0  0  0  0  0  0  0  0  0  0
    4.1746   -0.1164    1.4554 H   0  0  0  0  0  0  0  0  0  0  0  0
    2.1209   -2.0558    1.9591 H   0  0  0  0  0  0  0  0  0  0  0  0
    2.1267   -0.3566    2.4459 H   0  0  0  0  0  0  0  0  0  0  0  0
    1.0537   -1.6320   -0.0946 H   0  0  0  0  0  0  0  0  0  0  0  0
   -0.1204    0.3686    1.8400 H   0  0  0  0  0  0  0  0  0  0  0  0
   -0.8252   -2.4687    1.0436 H   0  0  0  0  0  0  0  0  0  0  0  0
   -0.3081   -1.8823    2.5940 H   0  0  0  0  0  0  0  0  0  0  0  0
   -2.3568   -1.0735    3.1812 H   0  0  0  0  0  0  0  0  0  0  0  0
   -2.8636   -2.3713    2.1006 H   0  0  0  0  0  0  0  0  0  0  0  0
   -4.3360    0.2712    2.8677 H   0  0  0  0  0  0  0  0  0  0  0  0
   -3.1560    2.5944   -0.0291 H   0  0  0  0  0  0  0  0  0  0  0  0
   -4.7482    2.4508   -0.7931 H   0  0  0  0  0  0  0  0  0  0  0  0
   -3.1390    0.9578   -1.9251 H   0  0  0  0  0  0  0  0  0  0  0  0
   -4.4793    0.0966   -1.1937 H   0  0  0  0  0  0  0  0  0  0  0  0
   -3.3299   -2.3117   -0.4914 H   0  0  0  0  0  0  0  0  0  0  0  0
   -1.6099   -2.1077   -0.8955 H   0  0  0  0  0  0  0  0  0  0  0  0
   -2.8409   -1.4947   -1.9761 H   0  0  0  0  0  0  0  0  0  0  0  0
   -1.2754    1.3466    0.3634 H   0  0  0  0  0  0  0  0  0  0  0  0
   -0.7315    1.6765   -1.6952 H   0  0  0  0  0  0  0  0  0  0  0  0
   -0.9944    0.0492   -2.2307 H   0  0  0  0  0  0  0  0  0  0  0  0
    1.1545   -0.4884   -2.2083 H   0  0  0  0  0  0  0  0  0  0  0  0
    1.3994    1.2328   -2.2940 H   0  0  0  0  0  0  0  0  0  0  0  0
    2.2274    2.5227   -0.3456 H   0  0  0  0  0  0  0  0  0  0  0  0
    2.5513    1.7476    1.2100 H   0  0  0  0  0  0  0  0  0  0  0  0
    0.8959    2.0880    0.7035 H   0  0  0  0  0  0  0  0  0  0  0  0
  1  2  1  0
  2  3  2  0
  2  4  1  0
  4  5  1  0
  5  6  1  0
  6  7  1  0
  7  8  1  0
  8  9  1  0
  9 10  1  0
 10 11  1  0
 11 12  2  0
 12 13  1  0
 13 14  2  0
 13 15  1  0
 15 16  1  0
 16 17  1  0
 17 18  1  0
 17 19  1  0
 19 20  1  0
 20 21  1  0
 21 22  1  0
 22 23  1  0
 22  4  1  0
 22  7  1  0
 19  8  1  0
 17 11  1  0
  1 24  1  0
  1 25  1  0
  1 26  1  0
  4 27  1  0
  5 28  1  0
  5 29  1  0
  6 30  1  0
  6 31  1  0
  7 32  1  0
  8 33  1  0
  9 34  1  0
  9 35  1  0
 10 36  1  0
 10 37  1  0
 12 38  1  0
 15 39  1  0
 15 40  1  0
 16 41  1  0
 16 42  1  0
 18 43  1  0
 18 44  1  0
 18 45  1  0
 19 46  1  0
 20 47  1  0
 20 48  1  0
 21 49  1  0
 21 50  1  0
 23 51  1  0
 23 52  1  0
 23 53  1  0
M  END
$$$$
