
     RDKit          3D

 49 52  0  0  0  0  0  0  0  0999 V2000
    2.3487    2.0537   -1.1418 C   0  0  0  0  0  0  0  0  0  0  0  0
    2.3545    0.8041   -0.2279 C   0  0  0  0  0  0  0  0  0  0  0  0
    1.7654    1.1740    1.1476 C   0  0  0  0  0  0  0  0  0  0  0  0
    0.2531    1.3456    1.0799 C   0  0  0  0  0  0  0  0  0  0  0  0
   -0.4684    0.0281    0.7354 C   0  0  0  0  0  0  0  0  0  0  0  0
    0.4209   -0.9859   -0.0583 C   0  0  0  0  0  0  0  0  0  0  0  0
   -0.4189   -1.9861   -0.8831 C   0  0  0  0  0  0  0  0  0  0  0  0
   -1.7367   -2.3552   -0.2163 C   0  0  0  0  0  0  0  0  0  0  0  0
   -2.6004   -1.1712    0.1662 C   0  0  0  0  0  0  0  0  0  0  0  0
   -3.8671   -1.4007    0.5586 C   0  0  0  0  0  0  0  0  0  0  0  0
   -4.7481   -0.3120    1.0473 C   0  0  0  0  0  0  0  0  0  0  0  0
   -5.8694   -0.5908    1.4837 O   0  0  0  0  0  0  0  0  0  0  0  0
   -4.2442    1.1029    0.9684 C   0  0  0  0  0  0  0  0  0  0  0  0
   -2.7292    1.1469    1.1570 C   0  0  0  0  0  0  0  0  0  0  0  0
   -1.9398    0.2107    0.1945 C   0  0  0  0  0  0  0  0  0  0  0  0
   -1.9580    0.8150   -1.2302 C   0  0  0  0  0  0  0  0  0  0  0  0
    1.5626   -0.3598   -0.9156 C   0  0  0  0  0  0  0  0  0  0  0  0
    2.6472   -1.4074   -1.2588 C   0  0  0  0  0  0  0  0  0  0  0  0
    3.7106   -1.2133   -0.1890 C   0  0  0  0  0  0  0  0  0  0  0  0
    3.8222    0.2996   -0.1304 C   0  0  0  0  0  0  0  0  0  0  0  0
    4.4847    0.7221    1.0456 O   0  0  0  0  0  0  0  0  0  0  0  0
    2.9093    2.8792   -0.6859 H   0  0  0  0  0  0  0  0  0  0  0  0
    2.8116    1.8404   -2.1147 H   0  0  0  0  0  0  0  0  0  0  0  0
    1.3350    2.4091   -1.3465 H   0  0  0  0  0  0  0  0  0  0  0  0
    2.0032    0.4077    1.8964 H   0  0  0  0  0  0  0  0  0  0  0  0
    2.2119    2.1051    1.5220 H   0  0  0  0  0  0  0  0  0  0  0  0
   -0.0008    2.1374    0.3698 H   0  0  0  0  0  0  0  0  0  0  0  0
   -0.0983    1.6985    2.0596 H   0  0  0  0  0  0  0  0  0  0  0  0
   -0.5958   -0.4650    1.7214 H   0  0  0  0  0  0  0  0  0  0  0  0
    0.9148   -1.5847    0.7237 H   0  0  0  0  0  0  0  0  0  0  0  0
    0.1539   -2.9058   -1.0453 H   0  0  0  0  0  0  0  0  0  0  0  0
   -0.6154   -1.5867   -1.8839 H   0  0  0  0  0  0  0  0  0  0  0  0
   -2.2943   -3.0246   -0.8870 H   0  0  0  0  0  0  0  0  0  0  0  0
   -1.5148   -2.9269    0.6973 H   0  0  0  0  0  0  0  0  0  0  0  0
   -4.3104   -2.3932    0.5762 H   0  0  0  0  0  0  0  0  0  0  0  0
   -4.5575    1.5337    0.0134 H   0  0  0  0  0  0  0  0  0  0  0  0
   -4.7240    1.6786    1.7712 H   0  0  0  0  0  0  0  0  0  0  0  0
   -2.5163    0.8616    2.1971 H   0  0  0  0  0  0  0  0  0  0  0  0
   -2.3936    2.1868    1.0507 H   0  0  0  0  0  0  0  0  0  0  0  0
   -1.1295    1.5175   -1.3963 H   0  0  0  0  0  0  0  0  0  0  0  0
   -2.8798    1.3751   -1.4410 H   0  0  0  0  0  0  0  0  0  0  0  0
   -1.8984    0.0606   -2.0240 H   0  0  0  0  0  0  0  0  0  0  0  0
    1.1127   -0.0066   -1.8526 H   0  0  0  0  0  0  0  0  0  0  0  0
    3.0760   -1.1771   -2.2412 H   0  0  0  0  0  0  0  0  0  0  0  0
    2.2934   -2.4440   -1.2876 H   0  0  0  0  0  0  0  0  0  0  0  0
    4.6621   -1.6857   -0.4466 H   0  0  0  0  0  0  0  0  0  0  0  0
    3.3989   -1.6230    0.7757 H   0  0  0  0  0  0  0  0  0  0  0  0
    4.4135    0.6484   -0.9856 H   0  0  0  0  0  0  0  0  0  0  0  0
    5.4432    0.5635    0.9307 H   0  0  0  0  0  0  0  0  0  0  0  0
  1  2  1  0
  2  3  1  0
  3  4  1  0
  4  5  1  0
  5  6  1  0
  6  7  1  0
  7  8  1  0
  8  9  1  0
  9 10  2  0
 10 11  1  0
 11 12  2  0
 11 13  1  0
 13 14  1  0
 14 15  1  0
 15 16  1  0
  6 17  1  0
 17 18  1  0
 18 19  1  0
 19 20  1  0
 20 21  1  0
 17  2  1  0
 20  2  1  0
 15  5  1  0
 15  9  1  0
  1 22  1  0
  1 23  1  0
  1 24  1  0
  3 25  1  0
  3 26  1  0
  4 27  1  0
  4 28  1  0
  5 29  1  0
  6 30  1  0
  7 31  1  0
  7 32  1  0
  8 33  1  0
  8 34  1  0
 10 35  1  0
 13 36  1  0
 13 37  1  0
 14 38  1  0
 14 39  1  0
 16 40  1  0
 16 41  1  0
 16 42  1  0
 17 43  1  0
 18 44  1  0
 18 45  1  0
 19 46  1  0
 19 47  1  0
 20 48  1  0
 21 49  1  0
M  END
$$$$
