
     RDKit          3D

 70 74  0  0  0  0  0  0  0  0999 V2000
   -5.5254    3.5312    0.4021 C   0  0  0  0  0  0  0  0  0  0  0  0
   -6.0874    2.1503    0.3984 C   0  0  0  0  0  0  0  0  0  0  0  0
   -5.3946    0.9851    0.5544 C   0  0  0  0  0  0  0  0  0  0  0  0
   -6.3897   -0.0968    0.3461 C   0  0  0  0  0  0  0  0  0  0  0  0
   -6.0746   -1.2801    0.3107 O   0  0  0  0  0  0  0  0  0  0  0  0
   -7.6269    0.5369    0.1330 N   0  0  0  0  0  0  0  0  0  0  0  0
   -7.4429    1.9421    0.1209 N   0  0  0  0  0  0  0  0  0  0  0  0
   -8.4405    2.6990    0.8937 C   0  0  0  0  0  0  0  0  0  0  0  0
   -8.8136   -0.1014   -0.2903 C   0  0  0  0  0  0  0  0  0  0  0  0
   -9.1154   -1.3845    0.1921 C   0  0  0  0  0  0  0  0  0  0  0  0
  -10.3092   -2.0079   -0.1162 C   0  0  0  0  0  0  0  0  0  0  0  0
  -11.2339   -1.3601   -0.9470 C   0  0  0  0  0  0  0  0  0  0  0  0
  -10.9285   -0.1039   -1.4780 C   0  0  0  0  0  0  0  0  0  0  0  0
   -9.7366    0.5306   -1.1580 C   0  0  0  0  0  0  0  0  0  0  0  0
   -3.9688    0.7907    0.8562 C   0  0  0  0  0  0  0  0  0  0  0  0
   -3.3284    1.6150    1.5220 O   0  0  0  0  0  0  0  0  0  0  0  0
   -3.4140   -0.3005    0.2028 N   0  0  0  0  0  0  0  0  0  0  0  0
   -2.0602   -0.5912    0.2200 C   0  0  0  0  0  0  0  0  0  0  0  0
   -1.4389   -0.8840   -1.0099 C   0  0  0  0  0  0  0  0  0  0  0  0
   -0.0841   -1.1271   -1.0523 C   0  0  0  0  0  0  0  0  0  0  0  0
    0.6823   -1.1025    0.1144 C   0  0  0  0  0  0  0  0  0  0  0  0
    0.0592   -0.9003    1.3601 C   0  0  0  0  0  0  0  0  0  0  0  0
   -1.3045   -0.5966    1.3945 C   0  0  0  0  0  0  0  0  0  0  0  0
    2.0283   -1.3232    0.0799 O   0  0  0  0  0  0  0  0  0  0  0  0
    2.8448   -0.2114   -0.0504 C   0  0  0  0  0  0  0  0  0  0  0  0
    4.2390   -0.4612   -0.0094 C   0  0  0  0  0  0  0  0  0  0  0  0
    4.7815   -1.7555    0.1728 C   0  0  0  0  0  0  0  0  0  0  0  0
    6.1587   -1.9598    0.1929 C   0  0  0  0  0  0  0  0  0  0  0  0
    7.0104   -0.8688    0.0284 C   0  0  0  0  0  0  0  0  0  0  0  0
    6.4924    0.4161   -0.1389 C   0  0  0  0  0  0  0  0  0  0  0  0
    5.1091    0.6438   -0.1609 C   0  0  0  0  0  0  0  0  0  0  0  0
    4.6768    1.9034   -0.3303 N   0  0  0  0  0  0  0  0  0  0  0  0
    3.3272    2.1052   -0.3526 C   0  0  0  0  0  0  0  0  0  0  0  0
    2.3944    1.0928   -0.2223 C   0  0  0  0  0  0  0  0  0  0  0  0
    8.3327   -1.1997    0.0472 O   0  0  0  0  0  0  0  0  0  0  0  0
    9.2900   -0.1558   -0.1077 C   0  0  0  0  0  0  0  0  0  0  0  0
   10.7179   -0.7545   -0.0367 C   0  0  0  0  0  0  0  0  0  0  0  0
   10.9782   -1.3703    1.3423 C   0  0  0  0  0  0  0  0  0  0  0  0
   10.9285   -1.8178   -1.1249 C   0  0  0  0  0  0  0  0  0  0  0  0
   11.6961    0.2757   -0.2478 O   0  0  0  0  0  0  0  0  0  0  0  0
    0.5210   -1.3066   -2.2442 F   0  0  0  0  0  0  0  0  0  0  0  0
   -5.2630    3.8457   -0.6204 H   0  0  0  0  0  0  0  0  0  0  0  0
   -4.6256    3.6342    1.0255 H   0  0  0  0  0  0  0  0  0  0  0  0
   -6.2357    4.2606    0.8122 H   0  0  0  0  0  0  0  0  0  0  0  0
   -9.4653    2.3235    0.7618 H   0  0  0  0  0  0  0  0  0  0  0  0
   -8.4549    3.7396    0.5726 H   0  0  0  0  0  0  0  0  0  0  0  0
   -8.2187    2.6584    1.9663 H   0  0  0  0  0  0  0  0  0  0  0  0
   -8.4237   -1.9003    0.8593 H   0  0  0  0  0  0  0  0  0  0  0  0
  -10.5558   -2.9780    0.3199 H   0  0  0  0  0  0  0  0  0  0  0  0
  -12.1979   -1.8298   -1.1803 H   0  0  0  0  0  0  0  0  0  0  0  0
  -11.6324    0.3910   -2.1672 H   0  0  0  0  0  0  0  0  0  0  0  0
   -9.4945    1.4980   -1.6104 H   0  0  0  0  0  0  0  0  0  0  0  0
   -3.9820   -0.6941   -0.5415 H   0  0  0  0  0  0  0  0  0  0  0  0
   -1.9997   -0.8627   -1.9411 H   0  0  0  0  0  0  0  0  0  0  0  0
    0.6508   -0.9447    2.2763 H   0  0  0  0  0  0  0  0  0  0  0  0
   -1.7750   -0.4344    2.3729 H   0  0  0  0  0  0  0  0  0  0  0  0
    4.1179   -2.6215    0.3034 H   0  0  0  0  0  0  0  0  0  0  0  0
    6.5542   -2.9619    0.3269 H   0  0  0  0  0  0  0  0  0  0  0  0
    7.1418    1.2878   -0.2671 H   0  0  0  0  0  0  0  0  0  0  0  0
    3.0394    3.1445   -0.4928 H   0  0  0  0  0  0  0  0  0  0  0  0
    1.3412    1.3626   -0.2695 H   0  0  0  0  0  0  0  0  0  0  0  0
    9.1665    0.6061    0.6686 H   0  0  0  0  0  0  0  0  0  0  0  0
    9.1504    0.3323   -1.0777 H   0  0  0  0  0  0  0  0  0  0  0  0
   12.0247   -1.6639    1.4453 H   0  0  0  0  0  0  0  0  0  0  0  0
   10.7812   -0.6485    2.1371 H   0  0  0  0  0  0  0  0  0  0  0  0
   10.3410   -2.2423    1.5242 H   0  0  0  0  0  0  0  0  0  0  0  0
   11.9747   -2.1503   -1.1261 H   0  0  0  0  0  0  0  0  0  0  0  0
   10.7301   -1.4110   -2.1202 H   0  0  0  0  0  0  0  0  0  0  0  0
   10.2984   -2.6833   -0.9752 H   0  0  0  0  0  0  0  0  0  0  0  0
   11.4611    0.7461   -1.0712 H   0  0  0  0  0  0  0  0  0  0  0  0
  1  2  1  0
  2  3  2  0
  3  4  1  0
  4  5  2  0
  4  6  1  0
  6  7  1  0
  7  8  1  0
  6  9  1  0
  9 10  2  0
 10 11  1  0
 11 12  2  0
 12 13  1  0
 13 14  2  0
  3 15  1  0
 15 16  2  0
 15 17  1  0
 17 18  1  0
 18 19  2  0
 19 20  1  0
 20 21  2  0
 21 22  1  0
 22 23  2  0
 21 24  1  0
 24 25  1  0
 25 26  1  0
 26 27  2  0
 27 28  1  0
 28 29  2  0
 29 30  1  0
 30 31  2  0
 31 32  1  0
 32 33  2  0
 33 34  1  0
 29 35  1  0
 35 36  1  0
 36 37  1  0
 37 38  1  0
 37 39  1  0
 37 40  1  0
 20 41  1  0
  7  2  1  0
 14  9  1  0
 23 18  1  0
 34 25  2  0
 31 26  1  0
  1 42  1  0
  1 43  1  0
  1 44  1  0
  8 45  1  0
  8 46  1  0
  8 47  1  0
 10 48  1  0
 11 49  1  0
 12 50  1  0
 13 51  1  0
 14 52  1  0
 17 53  1  0
 19 54  1  0
 22 55  1  0
 23 56  1  0
 27 57  1  0
 28 58  1  0
 30 59  1  0
 33 60  1  0
 34 61  1  0
 36 62  1  0
 36 63  1  0
 38 64  1  0
 38 65  1  0
 38 66  1  0
 39 67  1  0
 39 68  1  0
 39 69  1  0
 40 70  1  0
M  END
$$$$
