
     RDKit          3D

 25 25  0  0  0  0  0  0  0  0999 V2000
    3.1944    0.4124   -0.3542 C   0  0  0  0  0  0  0  0  0  0  0  0
    2.3022   -0.6566    0.0749 N   0  0  0  0  0  0  0  0  0  0  0  0
    1.4638   -0.2619    1.2158 C   0  0  0  0  0  0  0  0  0  0  0  0
    0.3763    0.8166    0.9536 C   0  0  1  0  0  0  0  0  0  0  0  0
   -0.6901    0.3837   -0.0368 C   0  0  0  0  0  0  0  0  0  0  0  0
   -1.6864   -0.5484    0.2985 C   0  0  0  0  0  0  0  0  0  0  0  0
   -2.6385   -0.9253   -0.6490 C   0  0  0  0  0  0  0  0  0  0  0  0
   -2.6191   -0.3978   -1.9334 C   0  0  0  0  0  0  0  0  0  0  0  0
   -1.6319    0.5190   -2.2827 C   0  0  0  0  0  0  0  0  0  0  0  0
   -0.6769    0.9091   -1.3401 C   0  0  0  0  0  0  0  0  0  0  0  0
   -3.6160   -1.8287   -0.3507 O   0  0  0  0  0  0  0  0  0  0  0  0
   -0.2419    1.1914    2.1923 O   0  0  0  0  0  0  0  0  0  0  0  0
    2.6445    1.2673   -0.7582 H   0  0  0  0  0  0  0  0  0  0  0  0
    3.8410    0.0416   -1.1559 H   0  0  0  0  0  0  0  0  0  0  0  0
    3.8380    0.7518    0.4628 H   0  0  0  0  0  0  0  0  0  0  0  0
    2.8640   -1.4657    0.3407 H   0  0  0  0  0  0  0  0  0  0  0  0
    0.9675   -1.1670    1.5879 H   0  0  0  0  0  0  0  0  0  0  0  0
    2.0994    0.0645    2.0488 H   0  0  0  0  0  0  0  0  0  0  0  0
    0.8552    1.7336    0.5908 H   0  0  0  0  0  0  0  0  0  0  0  0
   -1.7141   -0.9773    1.2935 H   0  0  0  0  0  0  0  0  0  0  0  0
   -3.3645   -0.7075   -2.6602 H   0  0  0  0  0  0  0  0  0  0  0  0
   -1.6018    0.9286   -3.2887 H   0  0  0  0  0  0  0  0  0  0  0  0
    0.0901    1.6238   -1.6296 H   0  0  0  0  0  0  0  0  0  0  0  0
   -3.5279   -2.0828    0.5811 H   0  0  0  0  0  0  0  0  0  0  0  0
   -0.5273    0.3757    2.6370 H   0  0  0  0  0  0  0  0  0  0  0  0
  1  2  1  0
  2  3  1  0
  3  4  1  0
  4  5  1  0
  5  6  2  0
  6  7  1  0
  7  8  2  0
  8  9  1  0
  9 10  2  0
  7 11  1  0
  4 12  1  0
 10  5  1  0
  1 13  1  0
  1 14  1  0
  1 15  1  0
  2 16  1  0
  3 17  1  0
  3 18  1  0
  4 19  1  6
  6 20  1  0
  8 21  1  0
  9 22  1  0
 10 23  1  0
 11 24  1  0
 12 25  1  0
M  END
$$$$
