
     RDKit          3D

 29 30  0  0  0  0  0  0  0  0999 V2000
   -2.4703    0.9826   -0.7296 C   0  0  0  0  0  0  0  0  0  0  0  0
   -1.2558    0.8214   -0.2079 C   0  0  0  0  0  0  0  0  0  0  0  0
   -1.0266   -0.1102    0.7789 N   0  0  0  0  0  0  0  0  0  0  0  0
   -2.0465   -0.9485    1.2399 C   0  0  0  0  0  0  0  0  0  0  0  0
   -1.8153   -1.8016    2.0945 O   0  0  0  0  0  0  0  0  0  0  0  0
   -3.3104   -0.7873    0.7260 N   0  0  0  0  0  0  0  0  0  0  0  0
   -3.5250    0.1036   -0.1899 C   0  0  0  0  0  0  0  0  0  0  0  0
   -4.8050    0.2163   -0.6578 N   0  0  0  0  0  0  0  0  0  0  0  0
    0.3047   -0.3596    1.3252 C   0  0  1  0  0  0  0  0  0  0  0  0
    1.0370   -1.5601    0.7046 C   0  0  0  0  0  0  0  0  0  0  0  0
    1.9898   -0.9061   -0.2763 C   0  0  1  0  0  0  0  0  0  0  0  0
    2.3628    0.3528    0.4903 C   0  0  2  0  0  0  0  0  0  0  0  0
    1.1546    0.8041    1.1416 O   0  0  0  0  0  0  0  0  0  0  0  0
    2.9319    1.4598   -0.3959 C   0  0  0  0  0  0  0  0  0  0  0  0
    2.0345    1.7739   -1.4620 O   0  0  0  0  0  0  0  0  0  0  0  0
    3.1389   -1.6894   -0.6052 O   0  0  0  0  0  0  0  0  0  0  0  0
    1.7364   -2.2383    1.6508 F   0  0  0  0  0  0  0  0  0  0  0  0
    0.2474   -2.4520    0.0730 F   0  0  0  0  0  0  0  0  0  0  0  0
   -2.6957    1.6947   -1.5093 H   0  0  0  0  0  0  0  0  0  0  0  0
   -0.4205    1.4245   -0.5501 H   0  0  0  0  0  0  0  0  0  0  0  0
   -5.4660   -0.2777   -0.0648 H   0  0  0  0  0  0  0  0  0  0  0  0
   -5.1190    1.1460   -0.9064 H   0  0  0  0  0  0  0  0  0  0  0  0
    0.2173   -0.5035    2.4087 H   0  0  0  0  0  0  0  0  0  0  0  0
    1.4552   -0.6830   -1.2063 H   0  0  0  0  0  0  0  0  0  0  0  0
    3.0967    0.1270    1.2748 H   0  0  0  0  0  0  0  0  0  0  0  0
    3.8880    1.1535   -0.8315 H   0  0  0  0  0  0  0  0  0  0  0  0
    3.0776    2.3730    0.1899 H   0  0  0  0  0  0  0  0  0  0  0  0
    2.4527    2.4887   -1.9743 H   0  0  0  0  0  0  0  0  0  0  0  0
    2.8306   -2.6046   -0.7482 H   0  0  0  0  0  0  0  0  0  0  0  0
  1  2  2  0
  2  3  1  0
  3  4  1  0
  4  5  2  0
  4  6  1  0
  6  7  2  0
  7  8  1  0
  3  9  1  0
  9 10  1  0
 10 11  1  0
 11 12  1  0
 12 13  1  0
 12 14  1  0
 14 15  1  0
 11 16  1  0
 10 17  1  0
 10 18  1  0
  7  1  1  0
 13  9  1  0
  1 19  1  0
  2 20  1  0
  8 21  1  0
  8 22  1  0
  9 23  1  1
 11 24  1  6
 12 25  1  1
 14 26  1  0
 14 27  1  0
 15 28  1  0
 16 29  1  0
M  END
$$$$
