
     RDKit          3D

 76 79  0  0  0  0  0  0  0  0999 V2000
    0.7334   -0.7785   -3.6559 C   0  0  0  0  0  0  0  0  0  0  0  0
    0.9553   -1.2526   -2.2192 C   0  0  0  0  0  0  0  0  0  0  0  0
   -0.0050   -2.3661   -1.8146 C   0  0  0  0  0  0  0  0  0  0  0  0
    1.0233   -0.0965   -1.2351 C   0  0  0  0  0  0  0  0  0  0  0  0
    2.1785    0.4066   -0.6299 C   0  0  0  0  0  0  0  0  0  0  0  0
    3.5261   -0.1468   -0.7707 C   0  0  0  0  0  0  0  0  0  0  0  0
    4.3927    0.4397   -1.4053 O   0  0  0  0  0  0  0  0  0  0  0  0
    3.6434   -1.3571   -0.1156 N   0  0  0  0  0  0  0  0  0  0  0  0
    4.7741   -2.1903   -0.0332 C   0  0  0  0  0  0  0  0  0  0  0  0
    4.6416   -3.3770    0.7001 C   0  0  0  0  0  0  0  0  0  0  0  0
    5.7166   -4.2606    0.8280 C   0  0  0  0  0  0  0  0  0  0  0  0
    6.9353   -3.9653    0.2236 C   0  0  0  0  0  0  0  0  0  0  0  0
    7.0769   -2.7872   -0.5059 C   0  0  0  0  0  0  0  0  0  0  0  0
    6.0009   -1.9028   -0.6343 C   0  0  0  0  0  0  0  0  0  0  0  0
    1.8153    1.5595    0.1198 C   0  0  0  0  0  0  0  0  0  0  0  0
    0.4478    1.7446   -0.0234 C   0  0  0  0  0  0  0  0  0  0  0  0
   -0.0312    0.7111   -0.8231 N   0  0  0  0  0  0  0  0  0  0  0  0
   -1.4406    0.5598   -1.1818 C   0  0  0  0  0  0  0  0  0  0  0  0
   -2.2346   -0.2099   -0.1229 C   0  0  0  0  0  0  0  0  0  0  0  0
   -3.6243   -0.6069   -0.6316 C   0  0  0  0  0  0  0  0  0  0  0  0
   -4.3159    0.5764   -1.0145 O   0  0  0  0  0  0  0  0  0  0  0  0
   -4.4067   -1.3431    0.4670 C   0  0  0  0  0  0  0  0  0  0  0  0
   -5.8014   -1.8022    0.0193 C   0  0  0  0  0  0  0  0  0  0  0  0
   -5.6577   -2.6660   -1.1113 O   0  0  0  0  0  0  0  0  0  0  0  0
   -6.5272   -2.5351    1.1473 C   0  0  0  0  0  0  0  0  0  0  0  0
   -8.0033   -2.6038    0.8730 C   0  0  0  0  0  0  0  0  0  0  0  0
   -8.5169   -3.8249    1.1187 O   0  0  0  0  0  0  0  0  0  0  0  0
   -8.7233   -1.6886    0.5128 O   0  0  0  0  0  0  0  0  0  0  0  0
   -0.3836    2.8412    0.4817 C   0  0  0  0  0  0  0  0  0  0  0  0
   -1.0344    2.7347    1.7178 C   0  0  0  0  0  0  0  0  0  0  0  0
   -1.8138    3.7905    2.1935 C   0  0  0  0  0  0  0  0  0  0  0  0
   -1.9330    4.9499    1.4354 C   0  0  0  0  0  0  0  0  0  0  0  0
   -2.6797    5.9630    1.8945 F   0  0  0  0  0  0  0  0  0  0  0  0
   -1.2858    5.0763    0.2117 C   0  0  0  0  0  0  0  0  0  0  0  0
   -0.5067    4.0210   -0.2652 C   0  0  0  0  0  0  0  0  0  0  0  0
    2.6791    2.4466    0.8851 C   0  0  0  0  0  0  0  0  0  0  0  0
    3.6708    3.1897    0.2354 C   0  0  0  0  0  0  0  0  0  0  0  0
    4.5100    4.0341    0.9648 C   0  0  0  0  0  0  0  0  0  0  0  0
    4.3634    4.1396    2.3471 C   0  0  0  0  0  0  0  0  0  0  0  0
    3.3817    3.3978    3.0025 C   0  0  0  0  0  0  0  0  0  0  0  0
    2.5438    2.5502    2.2746 C   0  0  0  0  0  0  0  0  0  0  0  0
    1.4807   -0.0286   -3.9388 H   0  0  0  0  0  0  0  0  0  0  0  0
    0.8244   -1.6180   -4.3539 H   0  0  0  0  0  0  0  0  0  0  0  0
   -0.2524   -0.3324   -3.8080 H   0  0  0  0  0  0  0  0  0  0  0  0
    1.9464   -1.7252   -2.2249 H   0  0  0  0  0  0  0  0  0  0  0  0
    0.1240   -2.6382   -0.7616 H   0  0  0  0  0  0  0  0  0  0  0  0
   -1.0516   -2.0988   -1.9749 H   0  0  0  0  0  0  0  0  0  0  0  0
    0.1847   -3.2635   -2.4146 H   0  0  0  0  0  0  0  0  0  0  0  0
    2.8135   -1.6652    0.3736 H   0  0  0  0  0  0  0  0  0  0  0  0
    3.7016   -3.6300    1.1829 H   0  0  0  0  0  0  0  0  0  0  0  0
    5.6023   -5.1775    1.4001 H   0  0  0  0  0  0  0  0  0  0  0  0
    7.7747   -4.6487    0.3213 H   0  0  0  0  0  0  0  0  0  0  0  0
    8.0270   -2.5489   -0.9778 H   0  0  0  0  0  0  0  0  0  0  0  0
    6.1567   -0.9953   -1.2097 H   0  0  0  0  0  0  0  0  0  0  0  0
   -1.4964    0.0602   -2.1486 H   0  0  0  0  0  0  0  0  0  0  0  0
   -1.8592    1.5592   -1.3412 H   0  0  0  0  0  0  0  0  0  0  0  0
   -1.6878   -1.1061    0.1916 H   0  0  0  0  0  0  0  0  0  0  0  0
   -2.3415    0.4187    0.7678 H   0  0  0  0  0  0  0  0  0  0  0  0
   -3.5146   -1.2416   -1.5186 H   0  0  0  0  0  0  0  0  0  0  0  0
   -5.0681    0.3082   -1.5742 H   0  0  0  0  0  0  0  0  0  0  0  0
   -4.5201   -0.6824    1.3358 H   0  0  0  0  0  0  0  0  0  0  0  0
   -3.8233   -2.2169    0.7843 H   0  0  0  0  0  0  0  0  0  0  0  0
   -6.3853   -0.9358   -0.3085 H   0  0  0  0  0  0  0  0  0  0  0  0
   -5.2303   -3.4919   -0.8231 H   0  0  0  0  0  0  0  0  0  0  0  0
   -6.4079   -2.0186    2.1062 H   0  0  0  0  0  0  0  0  0  0  0  0
   -6.1343   -3.5530    1.2545 H   0  0  0  0  0  0  0  0  0  0  0  0
   -9.4708   -3.7262    0.9122 H   0  0  0  0  0  0  0  0  0  0  0  0
   -0.9324    1.8324    2.3146 H   0  0  0  0  0  0  0  0  0  0  0  0
   -2.3237    3.7185    3.1483 H   0  0  0  0  0  0  0  0  0  0  0  0
   -1.3864    5.9932   -0.3598 H   0  0  0  0  0  0  0  0  0  0  0  0
    0.0100    4.1213   -1.2173 H   0  0  0  0  0  0  0  0  0  0  0  0
    3.7996    3.1102   -0.8421 H   0  0  0  0  0  0  0  0  0  0  0  0
    5.2796    4.6043    0.4521 H   0  0  0  0  0  0  0  0  0  0  0  0
    5.0175    4.7972    2.9134 H   0  0  0  0  0  0  0  0  0  0  0  0
    3.2697    3.4773    4.0803 H   0  0  0  0  0  0  0  0  0  0  0  0
    1.7888    1.9710    2.7983 H   0  0  0  0  0  0  0  0  0  0  0  0
  1  2  1  0
  2  3  1  0
  2  4  1  0
  4  5  2  0
  5  6  1  0
  6  7  2  0
  6  8  1  0
  8  9  1  0
  9 10  2  0
 10 11  1  0
 11 12  2  0
 12 13  1  0
 13 14  2  0
  5 15  1  0
 15 16  2  0
 16 17  1  0
 17 18  1  0
 18 19  1  0
 19 20  1  0
 20 21  1  0
 20 22  1  0
 22 23  1  0
 23 24  1  0
 23 25  1  0
 25 26  1  0
 26 27  1  0
 26 28  2  0
 16 29  1  0
 29 30  2  0
 30 31  1  0
 31 32  2  0
 32 33  1  0
 32 34  1  0
 34 35  2  0
 15 36  1  0
 36 37  2  0
 37 38  1  0
 38 39  2  0
 39 40  1  0
 40 41  2  0
 17  4  1  0
 35 29  1  0
 41 36  1  0
 14  9  1  0
  1 42  1  0
  1 43  1  0
  1 44  1  0
  2 45  1  0
  3 46  1  0
  3 47  1  0
  3 48  1  0
  8 49  1  0
 10 50  1  0
 11 51  1  0
 12 52  1  0
 13 53  1  0
 14 54  1  0
 18 55  1  0
 18 56  1  0
 19 57  1  0
 19 58  1  0
 20 59  1  0
 21 60  1  0
 22 61  1  0
 22 62  1  0
 23 63  1  0
 24 64  1  0
 25 65  1  0
 25 66  1  0
 27 67  1  0
 30 68  1  0
 31 69  1  0
 34 70  1  0
 35 71  1  0
 37 72  1  0
 38 73  1  0
 39 74  1  0
 40 75  1  0
 41 76  1  0
M  END
$$$$
