
     RDKit          3D

 78 79  0  0  0  0  0  0  0  0999 V2000
    5.4010   -0.9723    1.2712 C   0  0  0  0  0  0  0  0  0  0  0  0
    5.3008    0.3179    0.4619 C   0  0  0  0  0  0  0  0  0  0  0  0
    5.7624    0.2570   -0.9357 N   0  0  0  0  0  0  0  0  0  0  0  0
    7.1843   -0.0977   -1.0787 C   0  0  0  0  0  0  0  0  0  0  0  0
    8.1349    0.8902   -0.4092 C   0  0  0  0  0  0  0  0  0  0  0  0
    4.9348   -0.6213   -1.7967 C   0  0  0  0  0  0  0  0  0  0  0  0
    3.4388   -0.2543   -1.8684 C   0  0  0  0  0  0  0  0  0  0  0  0
    2.7375   -0.9095   -0.8081 O   0  0  0  0  0  0  0  0  0  0  0  0
    1.4207   -0.5864   -0.6363 C   0  0  0  0  0  0  0  0  0  0  0  0
    0.8260   -1.1489    0.4958 C   0  0  0  0  0  0  0  0  0  0  0  0
   -0.5131   -0.8926    0.8006 C   0  0  0  0  0  0  0  0  0  0  0  0
   -1.2758   -0.0647   -0.0288 C   0  0  0  0  0  0  0  0  0  0  0  0
   -0.6838    0.4842   -1.1742 C   0  0  0  0  0  0  0  0  0  0  0  0
    0.6585    0.2254   -1.4756 C   0  0  0  0  0  0  0  0  0  0  0  0
   -2.7002    0.2039    0.2961 C   0  0  0  0  0  0  0  0  0  0  0  0
   -3.0661    1.4129    0.7952 C   0  0  0  0  0  0  0  0  0  0  0  0
   -4.4538    1.8044    1.1152 C   0  0  0  0  0  0  0  0  0  0  0  0
   -4.8629    1.9343    2.4503 C   0  0  0  0  0  0  0  0  0  0  0  0
   -6.1755    2.2999    2.7550 C   0  0  0  0  0  0  0  0  0  0  0  0
   -7.0879    2.5417    1.7289 C   0  0  0  0  0  0  0  0  0  0  0  0
   -6.6903    2.4207    0.3984 C   0  0  0  0  0  0  0  0  0  0  0  0
   -5.3782    2.0559    0.0915 C   0  0  0  0  0  0  0  0  0  0  0  0
   -1.9126    2.6821    1.1318 Cl  0  0  0  0  0  0  0  0  0  0  0  0
   -3.7212   -0.8562    0.0766 C   0  0  0  0  0  0  0  0  0  0  0  0
   -4.0553   -1.2438   -1.2281 C   0  0  0  0  0  0  0  0  0  0  0  0
   -5.0096   -2.2397   -1.4461 C   0  0  0  0  0  0  0  0  0  0  0  0
   -5.6317   -2.8589   -0.3633 C   0  0  0  0  0  0  0  0  0  0  0  0
   -5.2965   -2.4895    0.9382 C   0  0  0  0  0  0  0  0  0  0  0  0
   -4.3414   -1.4956    1.1587 C   0  0  0  0  0  0  0  0  0  0  0  0
   -1.0218    0.1895   -0.9622 C   0  0  0  0  0  0  0  0  0  0  0  0
   -1.9617    0.6853    0.0948 C   0  0  0  0  0  0  0  0  0  0  0  0
   -3.0305    0.1788    0.3919 O   0  0  0  0  0  0  0  0  0  0  0  0
   -1.5179    1.7819    0.7304 O   0  0  0  0  0  0  0  0  0  0  0  0
    0.1536   -0.6122   -0.4021 C   0  0  0  0  0  0  0  0  0  0  0  0
    1.1354    0.1350    0.5046 C   0  0  0  0  0  0  0  0  0  0  0  0
    1.8513    1.2685   -0.1740 C   0  0  0  0  0  0  0  0  0  0  0  0
    1.4309    2.0085   -1.0457 O   0  0  0  0  0  0  0  0  0  0  0  0
    3.0816    1.4697    0.3443 O   0  0  0  0  0  0  0  0  0  0  0  0
   -0.4050   -1.8357    0.3383 C   0  0  0  0  0  0  0  0  0  0  0  0
   -0.5767   -2.9350   -0.1693 O   0  0  0  0  0  0  0  0  0  0  0  0
   -0.7548   -1.6094    1.6163 O   0  0  0  0  0  0  0  0  0  0  0  0
    0.9071   -1.1366   -1.5213 O   0  0  0  0  0  0  0  0  0  0  0  0
    4.8393   -1.7909    0.8133 H   0  0  0  0  0  0  0  0  0  0  0  0
    6.4394   -1.2922    1.3962 H   0  0  0  0  0  0  0  0  0  0  0  0
    4.9869   -0.8110    2.2726 H   0  0  0  0  0  0  0  0  0  0  0  0
    4.2654    0.6765    0.4924 H   0  0  0  0  0  0  0  0  0  0  0  0
    5.8551    1.1024    0.9904 H   0  0  0  0  0  0  0  0  0  0  0  0
    7.3836   -1.1101   -0.7077 H   0  0  0  0  0  0  0  0  0  0  0  0
    7.4418   -0.1021   -2.1455 H   0  0  0  0  0  0  0  0  0  0  0  0
    9.1698    0.6460   -0.6720 H   0  0  0  0  0  0  0  0  0  0  0  0
    7.9392    1.9145   -0.7425 H   0  0  0  0  0  0  0  0  0  0  0  0
    8.0594    0.8560    0.6812 H   0  0  0  0  0  0  0  0  0  0  0  0
    5.3200   -0.5256   -2.8204 H   0  0  0  0  0  0  0  0  0  0  0  0
    5.0499   -1.6721   -1.5038 H   0  0  0  0  0  0  0  0  0  0  0  0
    3.3182    0.8353   -1.8169 H   0  0  0  0  0  0  0  0  0  0  0  0
    3.0413   -0.6156   -2.8251 H   0  0  0  0  0  0  0  0  0  0  0  0
    1.4128   -1.7890    1.1498 H   0  0  0  0  0  0  0  0  0  0  0  0
   -0.9515   -1.3390    1.6893 H   0  0  0  0  0  0  0  0  0  0  0  0
   -1.2618    1.1242   -1.8369 H   0  0  0  0  0  0  0  0  0  0  0  0
    1.0748    0.6731   -2.3718 H   0  0  0  0  0  0  0  0  0  0  0  0
   -4.1600    1.7498    3.2596 H   0  0  0  0  0  0  0  0  0  0  0  0
   -6.4852    2.3981    3.7920 H   0  0  0  0  0  0  0  0  0  0  0  0
   -8.1097    2.8262    1.9661 H   0  0  0  0  0  0  0  0  0  0  0  0
   -7.4021    2.6099   -0.4010 H   0  0  0  0  0  0  0  0  0  0  0  0
   -5.0814    1.9667   -0.9512 H   0  0  0  0  0  0  0  0  0  0  0  0
   -3.5773   -0.7707   -2.0821 H   0  0  0  0  0  0  0  0  0  0  0  0
   -5.2671   -2.5323   -2.4607 H   0  0  0  0  0  0  0  0  0  0  0  0
   -6.3763   -3.6321   -0.5335 H   0  0  0  0  0  0  0  0  0  0  0  0
   -5.7802   -2.9741    1.7821 H   0  0  0  0  0  0  0  0  0  0  0  0
   -4.0878   -1.2209    2.1796 H   0  0  0  0  0  0  0  0  0  0  0  0
   -1.6102   -0.4409   -1.6439 H   0  0  0  0  0  0  0  0  0  0  0  0
   -0.7055    1.0281   -1.5896 H   0  0  0  0  0  0  0  0  0  0  0  0
   -2.2339    2.0090    1.3619 H   0  0  0  0  0  0  0  0  0  0  0  0
    0.6548    0.5330    1.4043 H   0  0  0  0  0  0  0  0  0  0  0  0
    1.9039   -0.5765    0.8377 H   0  0  0  0  0  0  0  0  0  0  0  0
    3.4323    2.2259   -0.1718 H   0  0  0  0  0  0  0  0  0  0  0  0
   -1.1480   -2.4560    1.9203 H   0  0  0  0  0  0  0  0  0  0  0  0
    0.4152   -1.9110   -1.8648 H   0  0  0  0  0  0  0  0  0  0  0  0
  1  2  1  0
  2  3  1  0
  3  4  1  0
  4  5  1  0
  3  6  1  0
  6  7  1  0
  7  8  1  0
  8  9  1  0
  9 10  2  0
 10 11  1  0
 11 12  2  0
 12 13  1  0
 13 14  2  0
 12 15  1  0
 15 16  2  3
 16 17  1  0
 17 18  2  0
 18 19  1  0
 19 20  2  0
 20 21  1  0
 21 22  2  0
 16 23  1  0
 15 24  1  0
 24 25  2  0
 25 26  1  0
 26 27  2  0
 27 28  1  0
 28 29  2  0
 30 31  1  0
 31 32  2  0
 31 33  1  0
 30 34  1  0
 34 35  1  0
 35 36  1  0
 36 37  2  0
 36 38  1  0
 34 39  1  0
 39 40  2  0
 39 41  1  0
 34 42  1  0
 14  9  1  0
 22 17  1  0
 29 24  1  0
  1 43  1  0
  1 44  1  0
  1 45  1  0
  2 46  1  0
  2 47  1  0
  4 48  1  0
  4 49  1  0
  5 50  1  0
  5 51  1  0
  5 52  1  0
  6 53  1  0
  6 54  1  0
  7 55  1  0
  7 56  1  0
 10 57  1  0
 11 58  1  0
 13 59  1  0
 14 60  1  0
 18 61  1  0
 19 62  1  0
 20 63  1  0
 21 64  1  0
 22 65  1  0
 25 66  1  0
 26 67  1  0
 27 68  1  0
 28 69  1  0
 29 70  1  0
 30 71  1  0
 30 72  1  0
 33 73  1  0
 35 74  1  0
 35 75  1  0
 38 76  1  0
 41 77  1  0
 42 78  1  0
M  END
$$$$
