
     RDKit          3D

 11 10  0  0  0  0  0  0  0  0999 V2000
    1.4163    0.0395   -0.1552 C   0  0  0  0  0  0  0  0  0  0  0  0
   -0.0871   -0.1986    0.7594 S   0  0  0  0  0  6  0  0  0  0  0  0
   -0.1668   -1.5990    1.1260 O   0  0  0  0  0  0  0  0  0  0  0  0
   -0.1649    0.8430    1.7649 O   0  0  0  0  0  0  0  0  0  0  0  0
   -1.3467    0.1191   -0.4514 C   0  0  0  0  0  0  0  0  0  0  0  0
    2.2568   -0.1375    0.5190 H   0  0  0  0  0  0  0  0  0  0  0  0
    1.4430   -0.6732   -0.9815 H   0  0  0  0  0  0  0  0  0  0  0  0
    1.4444    1.0655   -0.5267 H   0  0  0  0  0  0  0  0  0  0  0  0
   -1.2370    1.1427   -0.8141 H   0  0  0  0  0  0  0  0  0  0  0  0
   -2.3196   -0.0056    0.0285 H   0  0  0  0  0  0  0  0  0  0  0  0
   -1.2384   -0.5959   -1.2689 H   0  0  0  0  0  0  0  0  0  0  0  0
  1  2  1  0
  2  3  2  0
  2  4  2  0
  2  5  1  0
  1  6  1  0
  1  7  1  0
  1  8  1  0
  5  9  1  0
  5 10  1  0
  5 11  1  0
M  END
$$$$
