
     RDKit          3D

 54 54  0  0  0  0  0  0  0  0999 V2000
    7.8779    1.2732   -0.2663 C   0  0  0  0  0  0  0  0  0  0  0  0
    7.3487    1.0274    1.1385 C   0  0  0  0  0  0  0  0  0  0  0  0
    6.9732   -0.4324    1.4012 C   0  0  0  0  0  0  0  0  0  0  0  0
    5.8723   -1.0088    0.5057 C   0  0  0  0  0  0  0  0  0  0  0  0
    4.5540   -0.2422    0.6001 C   0  0  0  0  0  0  0  0  0  0  0  0
    3.4337   -0.9441   -0.1734 C   0  0  0  0  0  0  0  0  0  0  0  0
    2.1124   -0.1869   -0.0193 C   0  0  0  0  0  0  0  0  0  0  0  0
    0.9807   -0.8565   -0.8053 C   0  0  0  0  0  0  0  0  0  0  0  0
   -0.3234   -0.0552   -0.7766 C   0  0  0  0  0  0  0  0  0  0  0  0
   -0.9463    0.0617    0.6144 C   0  0  0  0  0  0  0  0  0  0  0  0
   -2.1285    0.8582    0.5646 O   0  0  0  0  0  0  0  0  0  0  0  0
   -3.3005    0.1390    0.1681 C   0  0  1  0  0  0  0  0  0  0  0  0
   -4.1433   -0.1803    1.4218 C   0  0  1  0  0  0  0  0  0  0  0  0
   -5.5173   -0.7129    1.0183 C   0  0  2  0  0  0  0  0  0  0  0  0
   -6.1996    0.2014    0.0016 C   0  0  1  0  0  0  0  0  0  0  0  0
   -5.2497    0.4354   -1.1832 C   0  0  2  0  0  0  0  0  0  0  0  0
   -4.0116    0.9885   -0.7363 O   0  0  0  0  0  0  0  0  0  0  0  0
   -5.8488    1.4044   -2.2105 C   0  0  0  0  0  0  0  0  0  0  0  0
   -7.1209    0.9472   -2.6651 O   0  0  0  0  0  0  0  0  0  0  0  0
   -7.4261   -0.4306   -0.3888 O   0  0  0  0  0  0  0  0  0  0  0  0
   -6.3380   -0.8436    2.1931 O   0  0  0  0  0  0  0  0  0  0  0  0
   -3.5071   -1.1720    2.2496 O   0  0  0  0  0  0  0  0  0  0  0  0
    7.1115    1.0833   -1.0239 H   0  0  0  0  0  0  0  0  0  0  0  0
    8.7418    0.6335   -0.4768 H   0  0  0  0  0  0  0  0  0  0  0  0
    8.1960    2.3154   -0.3711 H   0  0  0  0  0  0  0  0  0  0  0  0
    8.1213    1.3197    1.8584 H   0  0  0  0  0  0  0  0  0  0  0  0
    6.4909    1.6812    1.3260 H   0  0  0  0  0  0  0  0  0  0  0  0
    7.8692   -1.0550    1.2944 H   0  0  0  0  0  0  0  0  0  0  0  0
    6.6589   -0.5254    2.4484 H   0  0  0  0  0  0  0  0  0  0  0  0
    5.7040   -2.0506    0.8054 H   0  0  0  0  0  0  0  0  0  0  0  0
    6.2120   -1.0408   -0.5348 H   0  0  0  0  0  0  0  0  0  0  0  0
    4.6831    0.7697    0.1962 H   0  0  0  0  0  0  0  0  0  0  0  0
    4.2647   -0.1366    1.6522 H   0  0  0  0  0  0  0  0  0  0  0  0
    3.7037   -1.0078   -1.2341 H   0  0  0  0  0  0  0  0  0  0  0  0
    3.3133   -1.9703    0.1950 H   0  0  0  0  0  0  0  0  0  0  0  0
    1.8539   -0.1451    1.0460 H   0  0  0  0  0  0  0  0  0  0  0  0
    2.2390    0.8477   -0.3651 H   0  0  0  0  0  0  0  0  0  0  0  0
    1.2889   -0.9683   -1.8553 H   0  0  0  0  0  0  0  0  0  0  0  0
    0.8035   -1.8701   -0.4167 H   0  0  0  0  0  0  0  0  0  0  0  0
   -0.1573    0.9503   -1.1849 H   0  0  0  0  0  0  0  0  0  0  0  0
   -1.0382   -0.5294   -1.4602 H   0  0  0  0  0  0  0  0  0  0  0  0
   -1.1465   -0.9209    1.0540 H   0  0  0  0  0  0  0  0  0  0  0  0
   -0.2592    0.5839    1.2852 H   0  0  0  0  0  0  0  0  0  0  0  0
   -3.0285   -0.7841   -0.3602 H   0  0  0  0  0  0  0  0  0  0  0  0
   -4.2522    0.7204    2.0410 H   0  0  0  0  0  0  0  0  0  0  0  0
   -5.4245   -1.7309    0.6135 H   0  0  0  0  0  0  0  0  0  0  0  0
   -6.4623    1.1509    0.4840 H   0  0  0  0  0  0  0  0  0  0  0  0
   -5.0655   -0.5191   -1.6960 H   0  0  0  0  0  0  0  0  0  0  0  0
   -5.9671    2.4071   -1.7833 H   0  0  0  0  0  0  0  0  0  0  0  0
   -5.1742    1.4925   -3.0696 H   0  0  0  0  0  0  0  0  0  0  0  0
   -7.2743    1.3663   -3.5339 H   0  0  0  0  0  0  0  0  0  0  0  0
   -7.7139    0.0146   -1.2176 H   0  0  0  0  0  0  0  0  0  0  0  0
   -7.2392   -1.0163    1.8515 H   0  0  0  0  0  0  0  0  0  0  0  0
   -4.1443   -1.3367    2.9732 H   0  0  0  0  0  0  0  0  0  0  0  0
  1  2  1  0
  2  3  1  0
  3  4  1  0
  4  5  1  0
  5  6  1  0
  6  7  1  0
  7  8  1  0
  8  9  1  0
  9 10  1  0
 10 11  1  0
 11 12  1  0
 12 13  1  0
 13 14  1  0
 14 15  1  0
 15 16  1  0
 16 17  1  0
 16 18  1  0
 18 19  1  0
 15 20  1  0
 14 21  1  0
 13 22  1  0
 17 12  1  0
  1 23  1  0
  1 24  1  0
  1 25  1  0
  2 26  1  0
  2 27  1  0
  3 28  1  0
  3 29  1  0
  4 30  1  0
  4 31  1  0
  5 32  1  0
  5 33  1  0
  6 34  1  0
  6 35  1  0
  7 36  1  0
  7 37  1  0
  8 38  1  0
  8 39  1  0
  9 40  1  0
  9 41  1  0
 10 42  1  0
 10 43  1  0
 12 44  1  6
 13 45  1  1
 14 46  1  6
 15 47  1  1
 16 48  1  6
 18 49  1  0
 18 50  1  0
 19 51  1  0
 20 52  1  0
 21 53  1  0
 22 54  1  0
M  END
$$$$
