
     RDKit          3D

 21 17  0  0  0  0  0  0  0  0999 V2000
   -0.9266    0.4573   -0.7301 C   0  0  0  0  0  0  0  0  0  0  0  0
   -2.4465    0.5667   -0.5137 C   0  0  0  0  0  0  0  0  0  0  0  0
   -2.8665    1.5421    0.1835 O   0  0  0  0  0  0  0  0  0  0  0  0
   -3.1612   -0.2641   -1.1673 O   0  0  0  0  0  1  0  0  0  0  0  0
   -0.0772   -0.3041    0.2944 C   0  0  0  0  0  0  0  0  0  0  0  0
    1.3455   -0.6489   -0.2061 C   0  0  0  0  0  0  0  0  0  0  0  0
    2.3846    0.2726   -0.8645 C   0  0  0  0  0  0  0  0  0  0  0  0
    3.5967   -0.1231   -0.7315 O   0  0  0  0  0  0  0  0  0  0  0  0
    1.9792    1.2313   -1.5867 O   0  0  0  0  0  1  0  0  0  0  0  0
    0.0145    0.3878    1.7217 C   0  0  0  0  0  0  0  0  0  0  0  0
   -0.5591   -0.3005    2.6437 O   0  0  0  0  0  0  0  0  0  0  0  0
    0.6890    1.4455    1.8595 O   0  0  0  0  0  1  0  0  0  0  0  0
   -0.7023   -1.6257    0.5077 O   0  0  0  0  0  0  0  0  0  0  0  0
    0.0000    0.0000    0.0000 Na  0  0  0  0  0 15  0  0  0  0  0  0
    0.0000    0.0000    0.0000 Na  0  0  0  0  0 15  0  0  0  0  0  0
    0.0000    0.0000    0.0000 Na  0  0  0  0  0 15  0  0  0  0  0  0
   -0.7931   -0.0125   -1.7152 H   0  0  0  0  0  0  0  0  0  0  0  0
   -0.5444    1.4804   -0.8301 H   0  0  0  0  0  0  0  0  0  0  0  0
    1.8652   -1.1252    0.6412 H   0  0  0  0  0  0  0  0  0  0  0  0
    1.2396   -1.4678   -0.9371 H   0  0  0  0  0  0  0  0  0  0  0  0
   -1.0373   -1.5117    1.4306 H   0  0  0  0  0  0  0  0  0  0  0  0
  1  2  1  0
  2  3  2  0
  2  4  1  0
  1  5  1  0
  5  6  1  0
  6  7  1  0
  7  8  2  0
  7  9  1  0
  5 10  1  0
 10 11  2  0
 10 12  1  0
  5 13  1  0
  1 17  1  0
  1 18  1  0
  6 19  1  0
  6 20  1  0
 13 21  1  0
M  CHG  6   4  -1   9  -1  12  -1  14   1  15   1  16   1
M  END
$$$$
