
     RDKit          3D

 30 31  0  0  0  0  0  0  0  0999 V2000
    2.6655   -0.0658    1.5065 C   0  0  0  0  0  0  0  0  0  0  0  0
    1.4125    0.2005    1.1433 C   0  0  0  0  0  0  0  0  0  0  0  0
    1.1203    0.6339   -0.1291 N   0  0  0  0  0  0  0  0  0  0  0  0
    2.1158    0.7594   -1.1010 C   0  0  0  0  0  0  0  0  0  0  0  0
    1.8304    1.0831   -2.2536 O   0  0  0  0  0  0  0  0  0  0  0  0
    3.4202    0.5159   -0.7420 N   0  0  0  0  0  0  0  0  0  0  0  0
    3.6921    0.1321    0.4655 C   0  0  0  0  0  0  0  0  0  0  0  0
    5.0073   -0.1035    0.7590 N   0  0  0  0  0  0  0  0  0  0  0  0
   -0.2448    0.8612   -0.5723 C   0  0  1  0  0  0  0  0  0  0  0  0
   -0.8515   -0.2844   -1.4083 C   0  0  2  0  0  0  0  0  0  0  0  0
   -2.3364   -0.0703   -1.1620 C   0  0  1  0  0  0  0  0  0  0  0  0
   -2.3780    0.4212    0.2897 C   0  0  2  0  0  0  0  0  0  0  0  0
   -1.1361    1.1108    0.5403 O   0  0  0  0  0  0  0  0  0  0  0  0
   -2.5406   -0.7024    1.3184 C   0  0  0  0  0  0  0  0  0  0  0  0
   -3.7952   -1.3577    1.1782 O   0  0  0  0  0  0  0  0  0  0  0  0
   -2.8412    0.9323   -2.0552 O   0  0  0  0  0  0  0  0  0  0  0  0
   -0.4650   -1.5779   -0.9266 O   0  0  0  0  0  0  0  0  0  0  0  0
    2.9433   -0.3988    2.4951 H   0  0  0  0  0  0  0  0  0  0  0  0
    0.5901    0.0811    1.8400 H   0  0  0  0  0  0  0  0  0  0  0  0
    5.5745   -0.1511   -0.0827 H   0  0  0  0  0  0  0  0  0  0  0  0
    5.1989   -0.8600    1.4037 H   0  0  0  0  0  0  0  0  0  0  0  0
   -0.2635    1.7848   -1.1661 H   0  0  0  0  0  0  0  0  0  0  0  0
   -0.5587   -0.2067   -2.4601 H   0  0  0  0  0  0  0  0  0  0  0  0
   -2.9329   -0.9739   -1.3178 H   0  0  0  0  0  0  0  0  0  0  0  0
   -3.1921    1.1436    0.4215 H   0  0  0  0  0  0  0  0  0  0  0  0
   -2.4678   -0.3002    2.3354 H   0  0  0  0  0  0  0  0  0  0  0  0
   -1.7484   -1.4511    1.2322 H   0  0  0  0  0  0  0  0  0  0  0  0
   -4.4863   -0.7409    1.4773 H   0  0  0  0  0  0  0  0  0  0  0  0
   -2.5659    1.8127   -1.7423 H   0  0  0  0  0  0  0  0  0  0  0  0
   -0.7666   -2.2278   -1.5868 H   0  0  0  0  0  0  0  0  0  0  0  0
  1  2  2  0
  2  3  1  0
  3  4  1  0
  4  5  2  0
  4  6  1  0
  6  7  2  0
  7  8  1  0
  3  9  1  0
  9 10  1  0
 10 11  1  0
 11 12  1  0
 12 13  1  0
 12 14  1  0
 14 15  1  0
 11 16  1  0
 10 17  1  0
  7  1  1  0
 13  9  1  0
  1 18  1  0
  2 19  1  0
  8 20  1  0
  8 21  1  0
  9 22  1  6
 10 23  1  6
 11 24  1  1
 12 25  1  6
 14 26  1  0
 14 27  1  0
 15 28  1  0
 16 29  1  0
 17 30  1  0
M  END
$$$$
