
     RDKit          3D

 66 68  0  0  0  0  0  0  0  0999 V2000
   -5.0339    2.0407    2.6346 C   0  0  0  0  0  0  0  0  0  0  0  0
   -4.8517    1.6135    1.1686 C   0  0  2  0  0  0  0  0  0  0  0  0
   -5.9171    0.5777    0.7653 C   0  0  2  0  0  0  0  0  0  0  0  0
   -5.5114   -0.1842   -0.5156 C   0  0  1  0  0  0  0  0  0  0  0  0
   -4.3781    0.5258   -1.2728 C   0  0  2  0  0  0  0  0  0  0  0  0
   -3.1733    0.7594   -0.3233 C   0  0  0  0  0  0  0  0  0  0  0  0
   -3.5437    1.0558    1.0292 O   0  0  0  0  0  0  0  0  0  0  0  0
   -2.4258   -0.4603   -0.2682 O   0  0  0  0  0  0  0  0  0  0  0  0
   -0.9990   -0.2833   -0.1237 C   0  0  2  0  0  0  0  0  0  0  0  0
   -0.3323   -1.5858   -0.6383 C   0  0  2  0  0  0  0  0  0  0  0  0
    0.6510   -2.1331    0.2462 O   0  0  0  0  0  0  0  0  0  0  0  0
    1.5979   -1.2048    0.7726 C   0  0  0  0  0  0  0  0  0  0  0  0
    0.9286   -0.0031    1.4633 C   0  0  1  0  0  0  0  0  0  0  0  0
   -0.5939   -0.0359    1.3359 C   0  0  1  0  0  0  0  0  0  0  0  0
   -1.0566    1.2346    1.8263 O   0  0  0  0  0  0  0  0  0  0  0  0
    1.2605    0.0405    2.8657 O   0  0  0  0  0  0  0  0  0  0  0  0
    2.4362   -0.7240   -0.2774 O   0  0  0  0  0  0  0  0  0  0  0  0
    3.7835   -1.2427   -0.2437 C   0  0  2  0  0  0  0  0  0  0  0  0
    4.6024   -0.4887    0.8318 C   0  0  2  0  0  0  0  0  0  0  0  0
    4.8539    0.8978    0.5434 O   0  0  0  0  0  0  0  0  0  0  0  0
    4.8646    1.2873   -0.8166 C   0  0  1  0  0  0  0  0  0  0  0  0
    5.2874    0.1748   -1.7769 C   0  0  1  0  0  0  0  0  0  0  0  0
    4.3644   -1.0446   -1.6571 C   0  0  1  0  0  0  0  0  0  0  0  0
    5.1116   -2.2083   -2.0560 O   0  0  0  0  0  0  0  0  0  0  0  0
    5.2791    0.6305   -3.1408 O   0  0  0  0  0  0  0  0  0  0  0  0
    3.5792    1.7663   -1.1900 O   0  0  0  0  0  0  0  0  0  0  0  0
    5.9242   -1.1949    1.1728 C   0  0  0  0  0  0  0  0  0  0  0  0
    5.6743   -2.4883    1.7085 O   0  0  0  0  0  0  0  0  0  0  0  0
    0.2061   -1.4214   -2.0706 C   0  0  0  0  0  0  0  0  0  0  0  0
   -0.8531   -1.2051   -2.9991 O   0  0  0  0  0  0  0  0  0  0  0  0
   -4.8381    1.7785   -1.8012 O   0  0  0  0  0  0  0  0  0  0  0  0
   -5.1391   -1.5321   -0.1916 O   0  0  0  0  0  0  0  0  0  0  0  0
   -7.1704    1.2395    0.5499 O   0  0  0  0  0  0  0  0  0  0  0  0
   -4.0373    2.9791    3.0407 O   0  0  0  0  0  0  0  0  0  0  0  0
   -4.9447    1.1784    3.3042 H   0  0  0  0  0  0  0  0  0  0  0  0
   -6.0135    2.5032    2.7900 H   0  0  0  0  0  0  0  0  0  0  0  0
   -4.9175    2.5248    0.5594 H   0  0  0  0  0  0  0  0  0  0  0  0
   -6.0642   -0.1520    1.5721 H   0  0  0  0  0  0  0  0  0  0  0  0
   -6.3844   -0.2615   -1.1742 H   0  0  0  0  0  0  0  0  0  0  0  0
   -4.0503   -0.0859   -2.1222 H   0  0  0  0  0  0  0  0  0  0  0  0
   -2.5667    1.5897   -0.7050 H   0  0  0  0  0  0  0  0  0  0  0  0
   -0.6887    0.5657   -0.7454 H   0  0  0  0  0  0  0  0  0  0  0  0
   -1.1101   -2.3592   -0.6975 H   0  0  0  0  0  0  0  0  0  0  0  0
    2.1860   -1.7624    1.5110 H   0  0  0  0  0  0  0  0  0  0  0  0
    1.3238    0.9342    1.0517 H   0  0  0  0  0  0  0  0  0  0  0  0
   -1.0280   -0.7946    1.9980 H   0  0  0  0  0  0  0  0  0  0  0  0
   -2.0363    1.1776    1.8728 H   0  0  0  0  0  0  0  0  0  0  0  0
    0.6885    0.7451    3.2322 H   0  0  0  0  0  0  0  0  0  0  0  0
    3.7300   -2.3163   -0.0230 H   0  0  0  0  0  0  0  0  0  0  0  0
    4.0163   -0.4729    1.7580 H   0  0  0  0  0  0  0  0  0  0  0  0
    5.5502    2.1358   -0.9211 H   0  0  0  0  0  0  0  0  0  0  0  0
    6.3220   -0.1170   -1.5632 H   0  0  0  0  0  0  0  0  0  0  0  0
    3.5429   -0.9647   -2.3818 H   0  0  0  0  0  0  0  0  0  0  0  0
    5.4149   -2.0324   -2.9699 H   0  0  0  0  0  0  0  0  0  0  0  0
    4.4331    1.1142   -3.2468 H   0  0  0  0  0  0  0  0  0  0  0  0
    3.4034    2.4967   -0.5698 H   0  0  0  0  0  0  0  0  0  0  0  0
    6.5736   -1.2982    0.2985 H   0  0  0  0  0  0  0  0  0  0  0  0
    6.4767   -0.6106    1.9186 H   0  0  0  0  0  0  0  0  0  0  0  0
    6.5400   -2.8842    1.9177 H   0  0  0  0  0  0  0  0  0  0  0  0
    0.8797   -0.5646   -2.1464 H   0  0  0  0  0  0  0  0  0  0  0  0
    0.7746   -2.3049   -2.3787 H   0  0  0  0  0  0  0  0  0  0  0  0
   -1.2887   -2.0650   -3.1421 H   0  0  0  0  0  0  0  0  0  0  0  0
   -5.6312    1.5962   -2.3380 H   0  0  0  0  0  0  0  0  0  0  0  0
   -4.2258   -1.5203    0.1617 H   0  0  0  0  0  0  0  0  0  0  0  0
   -7.6311    1.2951    1.4066 H   0  0  0  0  0  0  0  0  0  0  0  0
   -3.8248    3.5486    2.2812 H   0  0  0  0  0  0  0  0  0  0  0  0
  1  2  1  0
  2  3  1  0
  3  4  1  0
  4  5  1  0
  5  6  1  0
  6  7  1  0
  6  8  1  0
  8  9  1  0
  9 10  1  0
 10 11  1  0
 11 12  1  0
 12 13  1  0
 13 14  1  0
 14 15  1  0
 13 16  1  0
 12 17  1  0
 17 18  1  0
 18 19  1  0
 19 20  1  0
 20 21  1  0
 21 22  1  0
 22 23  1  0
 23 24  1  0
 22 25  1  0
 21 26  1  0
 19 27  1  0
 27 28  1  0
 10 29  1  0
 29 30  1  0
  5 31  1  0
  4 32  1  0
  3 33  1  0
  1 34  1  0
  7  2  1  0
 14  9  1  0
 23 18  1  0
  1 35  1  0
  1 36  1  0
  2 37  1  6
  3 38  1  1
  4 39  1  6
  5 40  1  6
  6 41  1  0
  9 42  1  6
 10 43  1  6
 12 44  1  0
 13 45  1  6
 14 46  1  1
 15 47  1  0
 16 48  1  0
 18 49  1  1
 19 50  1  1
 21 51  1  1
 22 52  1  1
 23 53  1  6
 24 54  1  0
 25 55  1  0
 26 56  1  0
 27 57  1  0
 27 58  1  0
 28 59  1  0
 29 60  1  0
 29 61  1  0
 30 62  1  0
 31 63  1  0
 32 64  1  0
 33 65  1  0
 34 66  1  0
M  END
$$$$
