
     RDKit          3D

 26 27  0  0  0  0  0  0  0  0999 V2000
    2.5450   -0.8208   -1.5802 C   0  0  0  0  0  0  0  0  0  0  0  0
    1.6736   -1.0016   -0.4705 O   0  0  0  0  0  0  0  0  0  0  0  0
    1.7114    0.1006    0.4480 C   0  0  2  0  0  0  0  0  0  0  0  0
    1.2413   -0.4029    1.8100 C   0  0  0  0  0  0  0  0  0  0  0  0
   -0.2004   -0.3452    1.8156 O   0  0  0  0  0  0  0  0  0  0  0  0
   -0.6024    0.5760    0.7921 C   0  0  1  0  0  0  0  0  0  0  0  0
    0.6475    1.1559    0.1607 C   0  0  2  0  0  0  0  0  0  0  0  0
    0.3916    1.3912   -1.2247 O   0  0  0  0  0  0  0  0  0  0  0  0
   -0.8997    0.8306   -1.5274 C   0  0  0  0  0  0  0  0  0  0  0  0
   -1.2972   -0.0946   -0.3826 C   0  0  2  0  0  0  0  0  0  0  0  0
   -2.7205   -0.1466   -0.2640 O   0  0  0  0  0  0  0  0  0  0  0  0
   -3.1488   -1.0635    0.7366 C   0  0  0  0  0  0  0  0  0  0  0  0
    2.4112   -1.6664   -2.2602 H   0  0  0  0  0  0  0  0  0  0  0  0
    2.3227    0.1005   -2.1237 H   0  0  0  0  0  0  0  0  0  0  0  0
    3.5858   -0.8110   -1.2424 H   0  0  0  0  0  0  0  0  0  0  0  0
    2.7267    0.5082    0.5030 H   0  0  0  0  0  0  0  0  0  0  0  0
    1.5495   -1.4312    2.0193 H   0  0  0  0  0  0  0  0  0  0  0  0
    1.5942    0.2514    2.6145 H   0  0  0  0  0  0  0  0  0  0  0  0
   -1.2376    1.3477    1.2412 H   0  0  0  0  0  0  0  0  0  0  0  0
    0.9200    2.1010    0.6446 H   0  0  0  0  0  0  0  0  0  0  0  0
   -0.8463    0.2979   -2.4819 H   0  0  0  0  0  0  0  0  0  0  0  0
   -1.6102    1.6564   -1.6483 H   0  0  0  0  0  0  0  0  0  0  0  0
   -0.9144   -1.1068   -0.5601 H   0  0  0  0  0  0  0  0  0  0  0  0
   -4.2392   -1.1316    0.6901 H   0  0  0  0  0  0  0  0  0  0  0  0
   -2.8725   -0.7076    1.7328 H   0  0  0  0  0  0  0  0  0  0  0  0
   -2.7312   -2.0589    0.5574 H   0  0  0  0  0  0  0  0  0  0  0  0
  1  2  1  0
  2  3  1  0
  3  4  1  0
  4  5  1  0
  5  6  1  0
  6  7  1  0
  7  8  1  0
  8  9  1  0
  9 10  1  0
 10 11  1  0
 11 12  1  0
  7  3  1  0
 10  6  1  0
  1 13  1  0
  1 14  1  0
  1 15  1  0
  3 16  1  1
  4 17  1  0
  4 18  1  0
  6 19  1  1
  7 20  1  1
  9 21  1  0
  9 22  1  0
 10 23  1  6
 12 24  1  0
 12 25  1  0
 12 26  1  0
M  END
$$$$
