
     RDKit          3D

 26 25  0  0  0  0  0  0  0  0999 V2000
   -0.0375   -0.8521    1.5841 C   0  0  0  0  0  0  0  0  0  0  0  0
    1.0728   -1.1591    0.5699 C   0  0  0  0  0  0  0  0  0  0  0  0
    2.0642   -0.0177    0.2997 C   0  0  1  0  0  0  0  0  0  0  0  0
    3.2361   -0.5464   -0.5502 C   0  0  0  0  0  0  0  0  0  0  0  0
    3.8221   -1.6083   -0.4137 O   0  0  0  0  0  0  0  0  0  0  0  0
    3.6393    0.3217   -1.5095 O   0  0  0  0  0  0  0  0  0  0  0  0
    1.4211    1.1379   -0.3679 N   0  0  0  0  0  0  0  0  0  0  0  0
   -1.1327    0.1052    1.1140 C   0  0  0  0  0  0  0  0  0  0  0  0
   -1.7371   -0.4112   -0.1131 N   0  0  0  0  0  0  0  0  0  0  0  0
   -2.6723    0.2767   -0.6542 C   0  0  0  0  0  0  0  0  0  0  0  0
   -3.2801   -0.2019   -1.7611 N   0  0  0  0  0  0  0  0  0  0  0  0
   -3.2022    1.4532   -0.2652 N   0  0  0  0  0  0  0  0  0  0  0  0
    0.4088   -0.4614    2.5065 H   0  0  0  0  0  0  0  0  0  0  0  0
   -0.5131   -1.8053    1.8505 H   0  0  0  0  0  0  0  0  0  0  0  0
    1.6362   -2.0144    0.9674 H   0  0  0  0  0  0  0  0  0  0  0  0
    0.6403   -1.5158   -0.3738 H   0  0  0  0  0  0  0  0  0  0  0  0
    2.5006    0.3384    1.2397 H   0  0  0  0  0  0  0  0  0  0  0  0
    4.3882   -0.1461   -1.9359 H   0  0  0  0  0  0  0  0  0  0  0  0
    2.1563    1.6350   -0.8804 H   0  0  0  0  0  0  0  0  0  0  0  0
    0.7931    0.7784   -1.0896 H   0  0  0  0  0  0  0  0  0  0  0  0
   -0.7278    1.1112    0.9723 H   0  0  0  0  0  0  0  0  0  0  0  0
   -1.8919    0.1671    1.9039 H   0  0  0  0  0  0  0  0  0  0  0  0
   -2.8044   -1.0410   -2.0782 H   0  0  0  0  0  0  0  0  0  0  0  0
   -3.3816    0.4628   -2.5136 H   0  0  0  0  0  0  0  0  0  0  0  0
   -3.7195    1.9925   -0.9418 H   0  0  0  0  0  0  0  0  0  0  0  0
   -2.6789    2.0004    0.4041 H   0  0  0  0  0  0  0  0  0  0  0  0
  1  2  1  0
  2  3  1  0
  3  4  1  0
  4  5  2  0
  4  6  1  0
  3  7  1  0
  1  8  1  0
  8  9  1  0
  9 10  2  3
 10 11  1  0
 10 12  1  0
  1 13  1  0
  1 14  1  0
  2 15  1  0
  2 16  1  0
  3 17  1  1
  6 18  1  0
  7 19  1  0
  7 20  1  0
  8 21  1  0
  8 22  1  0
 11 23  1  0
 11 24  1  0
 12 25  1  0
 12 26  1  0
M  END
$$$$
