
     RDKit          3D

  8  7  0  0  0  0  0  0  0  0999 V2000
    0.5815   -0.2576   -0.1584 C   0  0  0  0  0  0  0  0  0  0  0  0
    1.1000   -1.1835   -0.7698 O   0  0  0  0  0  0  0  0  0  0  0  0
   -0.9171    0.0396    0.0024 C   0  0  0  0  0  0  0  0  0  0  0  0
   -1.3292    0.0087    1.7378 Cl  0  0  0  0  0  0  0  0  0  0  0  0
   -1.2647    1.6471   -0.6887 Cl  0  0  0  0  0  0  0  0  0  0  0  0
   -1.8837   -1.1907   -0.8541 Cl  0  0  0  0  0  0  0  0  0  0  0  0
    1.4034    0.6298    0.4625 O   0  0  0  0  0  0  0  0  0  0  0  0
    2.3099    0.3066    0.2684 H   0  0  0  0  0  0  0  0  0  0  0  0
  1  2  2  0
  1  3  1  0
  3  4  1  0
  3  5  1  0
  3  6  1  0
  1  7  1  0
  7  8  1  0
M  END
$$$$
