
     RDKit          3D

 62 66  0  0  0  0  0  0  0  0999 V2000
   -1.1082    2.3748   -0.3246 C   0  0  0  0  0  0  0  0  0  0  0  0
   -1.0240    0.9695    0.3347 C   0  0  2  0  0  0  0  0  0  0  0  0
   -0.0705    1.0087    1.5458 C   0  0  0  0  0  0  0  0  0  0  0  0
    1.4178    1.1903    1.1584 C   0  0  1  0  0  0  0  0  0  0  0  0
    1.8913    0.1358    0.1051 C   0  0  1  0  0  0  0  0  0  0  0  0
    0.9417    0.0877   -1.1467 C   0  0  2  0  0  0  0  0  0  0  0  0
   -0.5112   -0.1050   -0.6601 C   0  0  2  0  0  0  0  0  0  0  0  0
   -1.6799   -0.2373   -1.6515 C   0  0  0  0  0  0  0  0  0  0  0  0
   -2.9574   -0.0015   -0.7811 C   0  0  2  0  0  0  0  0  0  0  0  0
   -2.4519    0.3837    0.6185 C   0  0  1  0  0  0  0  0  0  0  0  0
   -2.3362   -0.9061    1.2736 O   0  0  0  0  0  0  0  0  0  0  0  0
   -3.2499   -1.7931    0.6121 C   0  0  0  0  0  0  0  0  0  0  0  0
   -3.7010   -1.2036   -0.6162 O   0  0  0  0  0  0  0  0  0  0  0  0
   -2.5363   -3.1105    0.3031 C   0  0  0  0  0  0  0  0  0  0  0  0
   -4.4556   -2.0575    1.5129 C   0  0  0  0  0  0  0  0  0  0  0  0
   -3.3730    1.2379    1.5198 C   0  0  0  0  0  0  0  0  0  0  0  0
   -3.5541    0.9553    2.7212 O   0  0  0  0  0  0  0  0  0  0  0  0
   -4.0549    2.4818    0.9532 C   0  0  0  0  0  0  0  0  0  0  0  0
   -5.0940    2.9639    1.7965 O   0  0  0  0  0  0  0  0  0  0  0  0
    1.3364   -1.0615   -2.1042 C   0  0  0  0  0  0  0  0  0  0  0  0
    2.8235   -1.0800   -2.4592 C   0  0  0  0  0  0  0  0  0  0  0  0
    3.6874   -1.0014   -1.2228 C   0  0  0  0  0  0  0  0  0  0  0  0
    4.5624   -1.9831   -0.9254 C   0  0  0  0  0  0  0  0  0  0  0  0
    5.3618   -1.9796    0.3187 C   0  0  0  0  0  0  0  0  0  0  0  0
    6.1402   -2.8869    0.5775 O   0  0  0  0  0  0  0  0  0  0  0  0
    5.1909   -0.8333    1.2288 C   0  0  0  0  0  0  0  0  0  0  0  0
    4.3206    0.1465    0.9415 C   0  0  0  0  0  0  0  0  0  0  0  0
    3.4237    0.2027   -0.2991 C   0  0  2  0  0  0  0  0  0  0  0  0
    3.8276    1.4934   -1.0475 C   0  0  0  0  0  0  0  0  0  0  0  0
    1.7265   -1.0881    0.7432 F   0  0  0  0  0  0  0  0  0  0  0  0
    1.6562    2.5480    0.8029 O   0  0  0  0  0  0  0  0  0  0  0  0
   -0.2716    2.5928   -0.9947 H   0  0  0  0  0  0  0  0  0  0  0  0
   -1.1295    3.1739    0.4332 H   0  0  0  0  0  0  0  0  0  0  0  0
   -2.0028    2.5010   -0.9459 H   0  0  0  0  0  0  0  0  0  0  0  0
   -0.3760    1.8071    2.2343 H   0  0  0  0  0  0  0  0  0  0  0  0
   -0.1582    0.0771    2.1169 H   0  0  0  0  0  0  0  0  0  0  0  0
    1.9756    1.0282    2.0881 H   0  0  0  0  0  0  0  0  0  0  0  0
    1.0079    1.0164   -1.7127 H   0  0  0  0  0  0  0  0  0  0  0  0
   -0.4637   -1.0692   -0.1366 H   0  0  0  0  0  0  0  0  0  0  0  0
   -1.6011    0.5391   -2.4206 H   0  0  0  0  0  0  0  0  0  0  0  0
   -1.6938   -1.2117   -2.1501 H   0  0  0  0  0  0  0  0  0  0  0  0
   -3.5993    0.7396   -1.2643 H   0  0  0  0  0  0  0  0  0  0  0  0
   -3.1971   -3.8256   -0.1982 H   0  0  0  0  0  0  0  0  0  0  0  0
   -1.6881   -2.9544   -0.3697 H   0  0  0  0  0  0  0  0  0  0  0  0
   -2.1374   -3.5712    1.2141 H   0  0  0  0  0  0  0  0  0  0  0  0
   -4.1415   -2.4660    2.4817 H   0  0  0  0  0  0  0  0  0  0  0  0
   -5.1671   -2.7468    1.0477 H   0  0  0  0  0  0  0  0  0  0  0  0
   -5.0005   -1.1320    1.7177 H   0  0  0  0  0  0  0  0  0  0  0  0
   -4.5077    2.2699   -0.0196 H   0  0  0  0  0  0  0  0  0  0  0  0
   -3.3222    3.2851    0.8682 H   0  0  0  0  0  0  0  0  0  0  0  0
   -4.7554    2.8680    2.7156 H   0  0  0  0  0  0  0  0  0  0  0  0
    1.0725   -2.0291   -1.6527 H   0  0  0  0  0  0  0  0  0  0  0  0
    0.7567   -0.9907   -3.0343 H   0  0  0  0  0  0  0  0  0  0  0  0
    3.0407   -1.9826   -3.0385 H   0  0  0  0  0  0  0  0  0  0  0  0
    3.0589   -0.2432   -3.1255 H   0  0  0  0  0  0  0  0  0  0  0  0
    4.7169   -2.8519   -1.5614 H   0  0  0  0  0  0  0  0  0  0  0  0
    5.8078   -0.8334    2.1234 H   0  0  0  0  0  0  0  0  0  0  0  0
    4.2549    0.9748    1.6435 H   0  0  0  0  0  0  0  0  0  0  0  0
    3.1603    1.7319   -1.8783 H   0  0  0  0  0  0  0  0  0  0  0  0
    4.8419    1.4136   -1.4655 H   0  0  0  0  0  0  0  0  0  0  0  0
    3.8421    2.3710   -0.3920 H   0  0  0  0  0  0  0  0  0  0  0  0
    1.5272    2.6670   -0.1530 H   0  0  0  0  0  0  0  0  0  0  0  0
  2  1  1  6
  2  3  1  0
  3  4  1  0
  4  5  1  0
  5  6  1  0
  6  7  1  0
  7  8  1  0
  8  9  1  0
  9 10  1  0
 10 11  1  0
 11 12  1  0
 12 13  1  0
 12 14  1  0
 12 15  1  0
 10 16  1  1
 16 17  2  0
 16 18  1  0
 18 19  1  0
  6 20  1  0
 20 21  1  0
 21 22  1  0
 22 23  2  0
 23 24  1  0
 24 25  2  0
 24 26  1  0
 26 27  2  0
 27 28  1  0
 28 29  1  6
  5 30  1  1
  4 31  1  0
  7  2  1  0
 10  2  1  0
 28  5  1  0
 13  9  1  0
 28 22  1  0
  1 32  1  0
  1 33  1  0
  1 34  1  0
  3 35  1  0
  3 36  1  0
  4 37  1  1
  6 38  1  6
  7 39  1  1
  8 40  1  0
  8 41  1  0
  9 42  1  6
 14 43  1  0
 14 44  1  0
 14 45  1  0
 15 46  1  0
 15 47  1  0
 15 48  1  0
 18 49  1  0
 18 50  1  0
 19 51  1  0
 20 52  1  0
 20 53  1  0
 21 54  1  0
 21 55  1  0
 23 56  1  0
 26 57  1  0
 27 58  1  0
 29 59  1  0
 29 60  1  0
 29 61  1  0
 31 62  1  0
M  END
$$$$
