
     RDKit          3D

 82 83  0  0  0  0  0  0  0  0999 V2000
    8.2960    1.3417   -0.1818 C   0  0  0  0  0  0  0  0  0  0  0  0
    6.8479    1.7410   -0.1465 C   0  0  0  0  0  0  0  0  0  0  0  0
    6.4847    2.9117   -0.1476 O   0  0  0  0  0  0  0  0  0  0  0  0
    5.9680    0.6809   -0.0591 N   0  0  0  0  0  0  0  0  0  0  0  0
    4.5250    0.9257    0.0599 C   0  0  2  0  0  0  0  0  0  0  0  0
    4.1477    1.2566    1.5200 C   0  0  2  0  0  0  0  0  0  0  0  0
    2.6555    1.5114    1.6332 C   0  0  0  0  0  0  0  0  0  0  0  0
    1.8409    0.3449    1.0685 C   0  0  1  0  0  0  0  0  0  0  0  0
    2.2793   -0.0613   -0.2159 O   0  0  0  0  0  0  0  0  0  0  0  0
    3.6778   -0.2769   -0.4198 C   0  0  1  0  0  0  0  0  0  0  0  0
    3.9060   -0.5746   -1.9265 C   0  0  1  0  0  0  0  0  0  0  0  0
    3.0756   -1.7343   -2.5191 C   0  0  1  0  0  0  0  0  0  0  0  0
    3.0819   -3.0134   -1.6818 C   0  0  0  0  0  0  0  0  0  0  0  0
    2.3670   -4.0185   -2.4069 O   0  0  0  0  0  0  0  0  0  0  0  0
    1.7156   -1.3067   -2.7239 O   0  0  0  0  0  0  0  0  0  0  0  0
    3.5979    0.5983   -2.6962 O   0  0  0  0  0  0  0  0  0  0  0  0
    1.7785   -0.7836    2.1517 C   0  0  0  0  0  0  0  0  0  0  0  0
    0.9290   -0.9161    3.0247 O   0  0  0  0  0  0  0  0  0  0  0  0
    2.8141   -1.6507    2.1205 O   0  0  0  0  0  0  0  0  0  0  0  0
    0.4510    0.7618    1.0050 O   0  0  0  0  0  0  0  0  0  0  0  0
    0.1079    1.5010   -0.1708 C   0  0  0  0  0  0  0  0  0  0  0  0
   -1.3433    2.0041   -0.0765 C   0  0  2  0  0  0  0  0  0  0  0  0
   -1.6180    2.9326    1.1229 C   0  0  1  0  0  0  0  0  0  0  0  0
   -1.9923    2.2003    2.4210 C   0  0  1  0  0  0  0  0  0  0  0  0
   -2.8823    0.9709    2.1793 C   0  0  2  0  0  0  0  0  0  0  0  0
   -3.3241    0.8787    0.7059 C   0  0  1  0  0  0  0  0  0  0  0  0
   -2.2099    0.8622   -0.1649 O   0  0  0  0  0  0  0  0  0  0  0  0
   -4.0181   -0.3704    0.5716 O   0  0  0  0  0  0  0  0  0  0  0  0
   -4.9207   -0.4246   -0.5410 C   0  0  2  0  0  0  0  0  0  0  0  0
   -6.1265   -1.3086   -0.1222 C   0  0  1  0  0  0  0  0  0  0  0  0
   -7.0531   -0.5828    0.8741 C   0  0  0  0  0  0  0  0  0  0  0  0
   -6.3740   -0.1857    2.0614 O   0  0  0  0  0  0  0  0  0  0  0  0
   -6.9281   -1.7455   -1.2187 O   0  0  0  0  0  0  0  0  0  0  0  0
   -4.1856   -0.9013   -1.8215 C   0  0  1  0  0  0  0  0  0  0  0  0
   -3.4322   -2.2528   -1.7318 C   0  0  2  0  0  0  0  0  0  0  0  0
   -4.3691   -3.4459   -1.8189 C   0  0  0  0  0  0  0  0  0  0  0  0
   -4.7417   -3.9193   -2.8932 O   0  0  0  0  0  0  0  0  0  0  0  0
   -2.5757   -2.3701   -0.6031 O   0  0  0  0  0  0  0  0  0  0  0  0
   -5.1050   -0.8491   -2.9246 O   0  0  0  0  0  0  0  0  0  0  0  0
   -4.0491    1.0461    3.0228 O   0  0  0  0  0  0  0  0  0  0  0  0
   -0.7846    1.8683    3.1346 O   0  0  0  0  0  0  0  0  0  0  0  0
   -0.5337    3.8416    1.3497 O   0  0  0  0  0  0  0  0  0  0  0  0
    4.8298    2.4060    2.0272 O   0  0  0  0  0  0  0  0  0  0  0  0
    8.4146    0.3136   -0.5335 H   0  0  0  0  0  0  0  0  0  0  0  0
    8.8361    2.0012   -0.8670 H   0  0  0  0  0  0  0  0  0  0  0  0
    8.7164    1.4289    0.8223 H   0  0  0  0  0  0  0  0  0  0  0  0
    6.3420   -0.1922    0.2879 H   0  0  0  0  0  0  0  0  0  0  0  0
    4.2857    1.8074   -0.5487 H   0  0  0  0  0  0  0  0  0  0  0  0
    4.4388    0.4259    2.1732 H   0  0  0  0  0  0  0  0  0  0  0  0
    2.3825    1.7190    2.6756 H   0  0  0  0  0  0  0  0  0  0  0  0
    2.4231    2.4447    1.1050 H   0  0  0  0  0  0  0  0  0  0  0  0
    3.9857   -1.1691    0.1341 H   0  0  0  0  0  0  0  0  0  0  0  0
    4.9670   -0.7989   -2.0817 H   0  0  0  0  0  0  0  0  0  0  0  0
    3.4517   -1.9506   -3.5273 H   0  0  0  0  0  0  0  0  0  0  0  0
    2.5614   -2.8755   -0.7294 H   0  0  0  0  0  0  0  0  0  0  0  0
    4.1012   -3.3657   -1.4991 H   0  0  0  0  0  0  0  0  0  0  0  0
    2.3749   -4.8254   -1.8609 H   0  0  0  0  0  0  0  0  0  0  0  0
    1.2271   -2.1270   -2.9444 H   0  0  0  0  0  0  0  0  0  0  0  0
    2.6197    0.5963   -2.7547 H   0  0  0  0  0  0  0  0  0  0  0  0
    2.6053   -2.2607    2.8646 H   0  0  0  0  0  0  0  0  0  0  0  0
    0.7902    2.3447   -0.3139 H   0  0  0  0  0  0  0  0  0  0  0  0
    0.1858    0.8304   -1.0345 H   0  0  0  0  0  0  0  0  0  0  0  0
   -1.5176    2.5888   -0.9899 H   0  0  0  0  0  0  0  0  0  0  0  0
   -2.4836    3.5524    0.8465 H   0  0  0  0  0  0  0  0  0  0  0  0
   -2.5089    2.9180    3.0727 H   0  0  0  0  0  0  0  0  0  0  0  0
   -2.3520    0.0543    2.4670 H   0  0  0  0  0  0  0  0  0  0  0  0
   -4.0041    1.7029    0.4571 H   0  0  0  0  0  0  0  0  0  0  0  0
   -5.3287    0.5723   -0.7577 H   0  0  0  0  0  0  0  0  0  0  0  0
   -5.7459   -2.1990    0.3886 H   0  0  0  0  0  0  0  0  0  0  0  0
   -7.4917    0.3054    0.4070 H   0  0  0  0  0  0  0  0  0  0  0  0
   -7.8843   -1.2421    1.1499 H   0  0  0  0  0  0  0  0  0  0  0  0
   -7.0661    0.1547    2.6667 H   0  0  0  0  0  0  0  0  0  0  0  0
   -6.6109   -1.3068   -2.0397 H   0  0  0  0  0  0  0  0  0  0  0  0
   -3.4204   -0.1476   -2.0398 H   0  0  0  0  0  0  0  0  0  0  0  0
   -2.7846   -2.3370   -2.6143 H   0  0  0  0  0  0  0  0  0  0  0  0
   -4.7411   -3.8468   -0.8628 H   0  0  0  0  0  0  0  0  0  0  0  0
   -2.8806   -1.7481    0.0870 H   0  0  0  0  0  0  0  0  0  0  0  0
   -4.6462   -1.2072   -3.7145 H   0  0  0  0  0  0  0  0  0  0  0  0
   -4.6825    0.3760    2.6766 H   0  0  0  0  0  0  0  0  0  0  0  0
   -0.4045    1.0690    2.7086 H   0  0  0  0  0  0  0  0  0  0  0  0
   -0.1441    3.5715    2.2099 H   0  0  0  0  0  0  0  0  0  0  0  0
    5.1783    2.9287    1.2705 H   0  0  0  0  0  0  0  0  0  0  0  0
  1  2  1  0
  2  3  2  0
  2  4  1  0
  4  5  1  0
  5  6  1  0
  6  7  1  0
  7  8  1  0
  8  9  1  0
  9 10  1  0
 10 11  1  0
 11 12  1  0
 12 13  1  0
 13 14  1  0
 12 15  1  0
 11 16  1  0
  8 17  1  0
 17 18  2  0
 17 19  1  0
  8 20  1  6
 20 21  1  0
 21 22  1  0
 22 23  1  0
 23 24  1  0
 24 25  1  0
 25 26  1  0
 26 27  1  0
 26 28  1  0
 28 29  1  0
 29 30  1  0
 30 31  1  0
 31 32  1  0
 30 33  1  0
 29 34  1  0
 34 35  1  0
 35 36  1  0
 36 37  2  0
 35 38  1  0
 34 39  1  0
 25 40  1  0
 24 41  1  0
 23 42  1  0
  6 43  1  0
 10  5  1  0
 27 22  1  0
  1 44  1  0
  1 45  1  0
  1 46  1  0
  4 47  1  0
  5 48  1  6
  6 49  1  1
  7 50  1  0
  7 51  1  0
 10 52  1  1
 11 53  1  1
 12 54  1  6
 13 55  1  0
 13 56  1  0
 14 57  1  0
 15 58  1  0
 16 59  1  0
 19 60  1  0
 21 61  1  0
 21 62  1  0
 22 63  1  6
 23 64  1  6
 24 65  1  1
 25 66  1  1
 26 67  1  6
 29 68  1  6
 30 69  1  1
 31 70  1  0
 31 71  1  0
 32 72  1  0
 33 73  1  0
 34 74  1  6
 35 75  1  6
 36 76  1  0
 38 77  1  0
 39 78  1  0
 40 79  1  0
 41 80  1  0
 42 81  1  0
 43 82  1  0
M  END
$$$$
