
     RDKit          3D

151154  0  0  0  0  0  0  0  0999 V2000
   -3.1643   -6.7306    1.5812 C   0  0  0  0  0  0  0  0  0  0  0  0
   -3.8448   -5.3763    1.3548 C   0  0  2  0  0  0  0  0  0  0  0  0
   -5.2535   -5.6680    0.8093 C   0  0  0  0  0  0  0  0  0  0  0  0
   -6.0126   -4.3808    0.5598 C   0  0  0  0  0  0  0  0  0  0  0  0
   -5.2151   -3.4467   -0.3519 C   0  0  1  0  0  0  0  0  0  0  0  0
   -5.9068   -2.0690   -0.4743 C   0  0  0  0  0  0  0  0  0  0  0  0
   -7.1846   -2.1427   -1.3320 C   0  0  1  0  0  0  0  0  0  0  0  0
   -8.2709   -1.1796   -0.8664 C   0  0  0  0  0  0  0  0  0  0  0  0
   -8.1950    0.1562   -0.7085 C   0  0  0  0  0  0  0  0  0  0  0  0
   -7.0996    1.0608   -0.9887 C   0  0  0  0  0  0  0  0  0  0  0  0
   -6.5619    1.2338   -2.2038 C   0  0  0  0  0  0  0  0  0  0  0  0
   -5.5283    2.1781   -2.5596 C   0  0  0  0  0  0  0  0  0  0  0  0
   -5.2671    3.3477   -1.9539 C   0  0  0  0  0  0  0  0  0  0  0  0
   -4.1981    4.2947   -2.4535 C   0  0  2  0  0  0  0  0  0  0  0  0
   -3.2356    4.7505   -1.3371 C   0  0  0  0  0  0  0  0  0  0  0  0
   -2.5066    3.6474   -0.5457 C   0  0  2  0  0  0  0  0  0  0  0  0
   -1.3725    4.3031    0.2512 C   0  0  0  0  0  0  0  0  0  0  0  0
   -0.2146    4.2786   -0.1791 O   0  0  0  0  0  0  0  0  0  0  0  0
   -1.7645    5.0622    1.5315 C   0  0  1  0  0  0  0  0  0  0  0  0
   -1.0465    4.5120    2.7967 C   0  0  1  0  0  0  0  0  0  0  0  0
    0.4261    4.1412    2.6992 C   0  0  0  0  0  0  0  0  0  0  0  0
    0.8222    2.8774    2.9688 C   0  0  0  0  0  0  0  0  0  0  0  0
    2.2149    2.3084    2.8598 C   0  0  2  0  0  0  0  0  0  0  0  0
    2.1015    0.8135    2.5284 C   0  0  0  0  0  0  0  0  0  0  0  0
    2.2753   -0.0515    3.3885 O   0  0  0  0  0  0  0  0  0  0  0  0
    1.6811    0.4540    1.1069 C   0  0  0  0  0  0  0  0  0  0  0  0
    2.4857   -0.6732    0.4503 C   0  0  2  0  0  0  0  0  0  0  0  0
    2.4285   -1.8434    1.2905 O   0  0  0  0  0  0  0  0  0  0  0  0
    1.5791   -2.8476    0.9254 C   0  0  0  0  0  0  0  0  0  0  0  0
    0.9666   -2.9174   -0.1401 O   0  0  0  0  0  0  0  0  0  0  0  0
    1.5450   -3.9125    2.0327 C   0  0  2  0  0  0  0  0  0  0  0  0
    2.5021   -5.0657    1.6986 C   0  0  0  0  0  0  0  0  0  0  0  0
    2.5601   -6.0559    2.8617 C   0  0  0  0  0  0  0  0  0  0  0  0
    1.1620   -6.5167    3.2815 C   0  0  0  0  0  0  0  0  0  0  0  0
    0.2268   -5.3273    3.5170 C   0  0  0  0  0  0  0  0  0  0  0  0
    0.1988   -4.3911    2.3989 N   0  0  0  0  0  0  0  0  0  0  0  0
   -0.6300   -4.7745    1.3346 C   0  0  0  0  0  0  0  0  0  0  0  0
   -0.5063   -5.8099    0.6940 O   0  0  0  0  0  0  0  0  0  0  0  0
   -1.8076   -3.8102    1.1022 C   0  0  0  0  0  0  0  0  0  0  0  0
   -1.6680   -2.6350    1.4594 O   0  0  0  0  0  0  0  0  0  0  0  0
   -3.0904   -4.3840    0.4210 C   0  0  2  0  0  0  0  0  0  0  0  0
   -3.9234   -3.2155    0.2210 O   0  0  0  0  0  0  0  0  0  0  0  0
   -2.8623   -4.9761   -0.8445 O   0  0  0  0  0  0  0  0  0  0  0  0
    3.9747   -0.3898    0.1142 C   0  0  2  0  0  0  0  0  0  0  0  0
    4.8492   -0.1247    1.3421 C   0  0  0  0  0  0  0  0  0  0  0  0
    4.1071    0.7292   -0.9412 C   0  0  0  0  0  0  0  0  0  0  0  0
    5.5333    1.0044   -1.4688 C   0  0  2  0  0  0  0  0  0  0  0  0
    5.5126    2.1925   -2.4534 C   0  0  0  0  0  0  0  0  0  0  0  0
    6.3840    1.9867   -3.6934 C   0  0  0  0  0  0  0  0  0  0  0  0
    7.7482    1.3697   -3.3756 C   0  0  2  0  0  0  0  0  0  0  0  0
    7.6369    0.0797   -2.5251 C   0  0  1  0  0  0  0  0  0  0  0  0
    6.1909   -0.2284   -2.1000 C   0  0  0  0  0  0  0  0  0  0  0  0
    8.1680   -1.0099   -3.3027 O   0  0  0  0  0  0  0  0  0  0  0  0
    8.5322   -2.1393   -2.5168 C   0  0  0  0  0  0  0  0  0  0  0  0
    8.5100    2.3628   -2.6611 O   0  0  0  0  0  0  0  0  0  0  0  0
    9.9139    2.1876   -2.8427 C   0  0  0  0  0  0  0  0  0  0  0  0
   10.6727    3.1879   -1.9714 C   0  0  0  0  0  0  0  0  0  0  0  0
   12.0875    3.0903   -2.1404 O   0  0  0  0  0  0  0  0  0  0  0  0
    3.0071    2.5271    4.1513 C   0  0  0  0  0  0  0  0  0  0  0  0
    1.3831    5.2376    2.2841 C   0  0  0  0  0  0  0  0  0  0  0  0
   -1.1890    5.4442    3.8817 O   0  0  0  0  0  0  0  0  0  0  0  0
   -1.5018    6.4680    1.3574 O   0  0  0  0  0  0  0  0  0  0  0  0
   -2.6037    7.2915    1.7327 C   0  0  0  0  0  0  0  0  0  0  0  0
   -1.9259    2.5362   -1.4248 C   0  0  0  0  0  0  0  0  0  0  0  0
   -4.8676    5.5187   -3.0890 C   0  0  0  0  0  0  0  0  0  0  0  0
   -9.5575   -1.8779   -0.4806 C   0  0  0  0  0  0  0  0  0  0  0  0
   -6.8389   -1.8915   -2.6983 O   0  0  0  0  0  0  0  0  0  0  0  0
   -7.6549   -2.5983   -3.6259 C   0  0  0  0  0  0  0  0  0  0  0  0
   -2.8732   -7.2067    0.6387 H   0  0  0  0  0  0  0  0  0  0  0  0
   -3.8265   -7.4246    2.1112 H   0  0  0  0  0  0  0  0  0  0  0  0
   -2.2813   -6.6302    2.2138 H   0  0  0  0  0  0  0  0  0  0  0  0
   -3.9703   -4.8981    2.3352 H   0  0  0  0  0  0  0  0  0  0  0  0
   -5.8176   -6.2851    1.5188 H   0  0  0  0  0  0  0  0  0  0  0  0
   -5.1909   -6.2428   -0.1241 H   0  0  0  0  0  0  0  0  0  0  0  0
   -6.9903   -4.6209    0.1345 H   0  0  0  0  0  0  0  0  0  0  0  0
   -6.1970   -3.8975    1.5256 H   0  0  0  0  0  0  0  0  0  0  0  0
   -5.0944   -3.8767   -1.3538 H   0  0  0  0  0  0  0  0  0  0  0  0
   -6.1432   -1.7262    0.5411 H   0  0  0  0  0  0  0  0  0  0  0  0
   -5.1940   -1.3554   -0.9065 H   0  0  0  0  0  0  0  0  0  0  0  0
   -7.5827   -3.1556   -1.2706 H   0  0  0  0  0  0  0  0  0  0  0  0
   -9.0518    0.6784   -0.2693 H   0  0  0  0  0  0  0  0  0  0  0  0
   -6.8113    1.6996   -0.1600 H   0  0  0  0  0  0  0  0  0  0  0  0
   -6.8871    0.5981   -3.0231 H   0  0  0  0  0  0  0  0  0  0  0  0
   -4.9681    1.9065   -3.4493 H   0  0  0  0  0  0  0  0  0  0  0  0
   -5.8364    3.6627   -1.0873 H   0  0  0  0  0  0  0  0  0  0  0  0
   -3.6073    3.8083   -3.2359 H   0  0  0  0  0  0  0  0  0  0  0  0
   -2.4823    5.4119   -1.7895 H   0  0  0  0  0  0  0  0  0  0  0  0
   -3.7819    5.3856   -0.6278 H   0  0  0  0  0  0  0  0  0  0  0  0
   -3.1878    3.1850    0.1768 H   0  0  0  0  0  0  0  0  0  0  0  0
   -2.8460    4.9192    1.6834 H   0  0  0  0  0  0  0  0  0  0  0  0
   -1.6056    3.6192    3.1058 H   0  0  0  0  0  0  0  0  0  0  0  0
    0.0654    2.1741    3.3256 H   0  0  0  0  0  0  0  0  0  0  0  0
    2.7796    2.7630    2.0391 H   0  0  0  0  0  0  0  0  0  0  0  0
    0.6298    0.1564    1.1788 H   0  0  0  0  0  0  0  0  0  0  0  0
    1.7159    1.3525    0.4822 H   0  0  0  0  0  0  0  0  0  0  0  0
    1.9926   -0.8802   -0.5086 H   0  0  0  0  0  0  0  0  0  0  0  0
    1.9124   -3.4174    2.9442 H   0  0  0  0  0  0  0  0  0  0  0  0
    3.5075   -4.6804    1.4984 H   0  0  0  0  0  0  0  0  0  0  0  0
    2.1796   -5.5844    0.7899 H   0  0  0  0  0  0  0  0  0  0  0  0
    3.1755   -6.9222    2.5933 H   0  0  0  0  0  0  0  0  0  0  0  0
    3.0470   -5.5718    3.7185 H   0  0  0  0  0  0  0  0  0  0  0  0
    1.2242   -7.1214    4.1904 H   0  0  0  0  0  0  0  0  0  0  0  0
    0.7505   -7.1712    2.4991 H   0  0  0  0  0  0  0  0  0  0  0  0
   -0.7894   -5.6898    3.7121 H   0  0  0  0  0  0  0  0  0  0  0  0
    0.5453   -4.7726    4.4052 H   0  0  0  0  0  0  0  0  0  0  0  0
   -2.3136   -4.3454   -1.3333 H   0  0  0  0  0  0  0  0  0  0  0  0
    4.3494   -1.3257   -0.3238 H   0  0  0  0  0  0  0  0  0  0  0  0
    5.9107   -0.2296    1.0900 H   0  0  0  0  0  0  0  0  0  0  0  0
    4.6489   -0.8390    2.1478 H   0  0  0  0  0  0  0  0  0  0  0  0
    4.7087    0.8892    1.7296 H   0  0  0  0  0  0  0  0  0  0  0  0
    3.4603    0.4849   -1.7956 H   0  0  0  0  0  0  0  0  0  0  0  0
    3.7190    1.6669   -0.5194 H   0  0  0  0  0  0  0  0  0  0  0  0
    6.1534    1.3151   -0.6161 H   0  0  0  0  0  0  0  0  0  0  0  0
    4.4917    2.4137   -2.7850 H   0  0  0  0  0  0  0  0  0  0  0  0
    5.8529    3.0891   -1.9186 H   0  0  0  0  0  0  0  0  0  0  0  0
    6.5184    2.9561   -4.1878 H   0  0  0  0  0  0  0  0  0  0  0  0
    5.8495    1.3398   -4.4014 H   0  0  0  0  0  0  0  0  0  0  0  0
    8.2464    1.1633   -4.3336 H   0  0  0  0  0  0  0  0  0  0  0  0
    8.2517    0.1929   -1.6228 H   0  0  0  0  0  0  0  0  0  0  0  0
    6.2075   -1.0587   -1.3793 H   0  0  0  0  0  0  0  0  0  0  0  0
    5.6069   -0.5950   -2.9546 H   0  0  0  0  0  0  0  0  0  0  0  0
    9.2434   -1.8547   -1.7322 H   0  0  0  0  0  0  0  0  0  0  0  0
    7.6490   -2.6137   -2.0733 H   0  0  0  0  0  0  0  0  0  0  0  0
    9.0191   -2.8755   -3.1689 H   0  0  0  0  0  0  0  0  0  0  0  0
   10.2194    1.1689   -2.5753 H   0  0  0  0  0  0  0  0  0  0  0  0
   10.1782    2.3457   -3.8949 H   0  0  0  0  0  0  0  0  0  0  0  0
   10.3670    4.2147   -2.2120 H   0  0  0  0  0  0  0  0  0  0  0  0
   10.4429    3.0248   -0.9150 H   0  0  0  0  0  0  0  0  0  0  0  0
   12.2900    2.2361   -2.5523 H   0  0  0  0  0  0  0  0  0  0  0  0
    2.5199    2.0581    5.0130 H   0  0  0  0  0  0  0  0  0  0  0  0
    3.1256    3.5960    4.3683 H   0  0  0  0  0  0  0  0  0  0  0  0
    4.0111    2.0941    4.0653 H   0  0  0  0  0  0  0  0  0  0  0  0
    1.5597    5.9216    3.1228 H   0  0  0  0  0  0  0  0  0  0  0  0
    0.9867    5.8288    1.4495 H   0  0  0  0  0  0  0  0  0  0  0  0
    2.3469    4.8484    1.9549 H   0  0  0  0  0  0  0  0  0  0  0  0
   -0.7278    6.2508    3.5801 H   0  0  0  0  0  0  0  0  0  0  0  0
   -3.4740    7.0820    1.1004 H   0  0  0  0  0  0  0  0  0  0  0  0
   -2.3137    8.3386    1.5865 H   0  0  0  0  0  0  0  0  0  0  0  0
   -2.8672    7.1440    2.7844 H   0  0  0  0  0  0  0  0  0  0  0  0
   -1.3350    2.9488   -2.2500 H   0  0  0  0  0  0  0  0  0  0  0  0
   -2.7115    1.9067   -1.8457 H   0  0  0  0  0  0  0  0  0  0  0  0
   -1.2629    1.8812   -0.8452 H   0  0  0  0  0  0  0  0  0  0  0  0
   -5.5165    5.2253   -3.9196 H   0  0  0  0  0  0  0  0  0  0  0  0
   -5.4765    6.0706   -2.3607 H   0  0  0  0  0  0  0  0  0  0  0  0
   -4.1158    6.2122   -3.4890 H   0  0  0  0  0  0  0  0  0  0  0  0
   -9.3770   -2.5770    0.3450 H   0  0  0  0  0  0  0  0  0  0  0  0
  -10.3404   -1.1805   -0.1589 H   0  0  0  0  0  0  0  0  0  0  0  0
   -9.9567   -2.4416   -1.3314 H   0  0  0  0  0  0  0  0  0  0  0  0
   -7.3885   -2.2715   -4.6343 H   0  0  0  0  0  0  0  0  0  0  0  0
   -7.4672   -3.6755   -3.5477 H   0  0  0  0  0  0  0  0  0  0  0  0
   -8.7156   -2.3872   -3.4632 H   0  0  0  0  0  0  0  0  0  0  0  0
  1  2  1  0
  2  3  1  0
  3  4  1  0
  4  5  1  0
  5  6  1  0
  6  7  1  0
  7  8  1  0
  8  9  2  0
  9 10  1  0
 10 11  2  0
 11 12  1  0
 12 13  2  0
 13 14  1  0
 14 15  1  0
 15 16  1  0
 16 17  1  0
 17 18  2  0
 17 19  1  0
 19 20  1  0
 20 21  1  0
 21 22  2  0
 22 23  1  0
 23 24  1  0
 24 25  2  0
 24 26  1  0
 26 27  1  0
 27 28  1  0
 28 29  1  0
 29 30  2  0
 29 31  1  0
 31 32  1  0
 32 33  1  0
 33 34  1  0
 34 35  1  0
 35 36  1  0
 36 37  1  0
 37 38  2  0
 37 39  1  0
 39 40  2  0
 39 41  1  0
 41 42  1  0
 41 43  1  6
 27 44  1  0
 44 45  1  0
 44 46  1  0
 46 47  1  0
 47 48  1  0
 48 49  1  0
 49 50  1  0
 50 51  1  0
 51 52  1  0
 51 53  1  0
 53 54  1  0
 50 55  1  0
 55 56  1  0
 56 57  1  0
 57 58  1  0
 23 59  1  0
 21 60  1  0
 20 61  1  0
 19 62  1  0
 62 63  1  0
 16 64  1  0
 14 65  1  0
  8 66  1  0
  7 67  1  0
 67 68  1  0
 41  2  1  0
 42  5  1  0
 36 31  1  0
 52 47  1  0
  1 69  1  0
  1 70  1  0
  1 71  1  0
  2 72  1  1
  3 73  1  0
  3 74  1  0
  4 75  1  0
  4 76  1  0
  5 77  1  6
  6 78  1  0
  6 79  1  0
  7 80  1  6
  9 81  1  0
 10 82  1  0
 11 83  1  0
 12 84  1  0
 13 85  1  0
 14 86  1  6
 15 87  1  0
 15 88  1  0
 16 89  1  1
 19 90  1  1
 20 91  1  1
 22 92  1  0
 23 93  1  6
 26 94  1  0
 26 95  1  0
 27 96  1  6
 31 97  1  1
 32 98  1  0
 32 99  1  0
 33100  1  0
 33101  1  0
 34102  1  0
 34103  1  0
 35104  1  0
 35105  1  0
 43106  1  0
 44107  1  6
 45108  1  0
 45109  1  0
 45110  1  0
 46111  1  0
 46112  1  0
 47113  1  1
 48114  1  0
 48115  1  0
 49116  1  0
 49117  1  0
 50118  1  6
 51119  1  1
 52120  1  0
 52121  1  0
 54122  1  0
 54123  1  0
 54124  1  0
 56125  1  0
 56126  1  0
 57127  1  0
 57128  1  0
 58129  1  0
 59130  1  0
 59131  1  0
 59132  1  0
 60133  1  0
 60134  1  0
 60135  1  0
 61136  1  0
 63137  1  0
 63138  1  0
 63139  1  0
 64140  1  0
 64141  1  0
 64142  1  0
 65143  1  0
 65144  1  0
 65145  1  0
 66146  1  0
 66147  1  0
 66148  1  0
 68149  1  0
 68150  1  0
 68151  1  0
M  END
$$$$
