
     RDKit          3D

 75 78  0  0  0  0  0  0  0  0999 V2000
    5.2623   -5.0633    0.9443 C   0  0  0  0  0  0  0  0  0  0  0  0
    6.6475   -5.2140    1.0598 C   0  0  0  0  0  0  0  0  0  0  0  0
    7.4708   -4.0998    0.9770 C   0  0  0  0  0  0  0  0  0  0  0  0
    6.9316   -2.8318    0.7747 C   0  0  0  0  0  0  0  0  0  0  0  0
    5.5428   -2.6825    0.6575 C   0  0  0  0  0  0  0  0  0  0  0  0
    4.6938   -3.7938    0.7525 C   0  0  0  0  0  0  0  0  0  0  0  0
    3.2331   -3.6985    0.6103 C   0  0  0  0  0  0  0  0  0  0  0  0
    2.4820   -2.6384    0.9611 C   0  0  0  0  0  0  0  0  0  0  0  0
    1.0300   -2.5742    0.8293 C   0  0  0  0  0  0  0  0  0  0  0  0
    0.2601   -1.4547    0.8486 C   0  0  0  0  0  0  0  0  0  0  0  0
   -1.2015   -1.4535    0.6475 C   0  0  0  0  0  0  0  0  0  0  0  0
   -1.9371   -0.3423    0.4569 C   0  0  0  0  0  0  0  0  0  0  0  0
   -1.2497    0.9811    0.5662 C   0  0  0  0  0  0  0  0  0  0  0  0
   -1.8699    1.9427    1.0139 O   0  0  0  0  0  0  0  0  0  0  0  0
    0.2273    1.0183    0.1313 C   0  0  0  0  0  0  0  0  0  0  0  0
    0.8910   -0.0797    0.9728 C   0  0  0  0  0  0  0  0  0  0  0  0
    1.8279    0.1493    1.7339 O   0  0  0  0  0  0  0  0  0  0  0  0
    0.8092    2.4485    0.3096 C   0  0  1  0  0  0  0  0  0  0  0  0
    2.3126    2.6037   -0.0587 C   0  0  1  0  0  0  0  0  0  0  0  0
    2.6960    4.0921   -0.1880 C   0  0  2  0  0  0  0  0  0  0  0  0
    1.7256    4.8849   -1.0584 C   0  0  1  0  0  0  0  0  0  0  0  0
    0.3247    4.6751   -0.4883 C   0  0  2  0  0  0  0  0  0  0  0  0
    0.0197    3.2826   -0.5822 O   0  0  0  0  0  0  0  0  0  0  0  0
   -0.7383    5.4782   -1.2489 C   0  0  0  0  0  0  0  0  0  0  0  0
   -0.5553    6.8806   -1.0895 O   0  0  0  0  0  0  0  0  0  0  0  0
    2.1021    6.2680   -1.0738 O   0  0  0  0  0  0  0  0  0  0  0  0
    4.0244    4.2224   -0.7218 O   0  0  0  0  0  0  0  0  0  0  0  0
    3.2257    2.1130    0.9325 O   0  0  0  0  0  0  0  0  0  0  0  0
    0.3330    0.6525   -1.2555 O   0  0  0  0  0  0  0  0  0  0  0  0
   -3.4053   -0.2542    0.1378 C   0  0  1  0  0  0  0  0  0  0  0  0
   -3.6098   -0.1964   -1.3894 C   0  0  1  0  0  0  0  0  0  0  0  0
   -5.1110   -0.0874   -1.6766 C   0  0  2  0  0  0  0  0  0  0  0  0
   -5.8946   -1.2241   -0.9945 C   0  0  1  0  0  0  0  0  0  0  0  0
   -5.5244   -1.2814    0.4995 C   0  0  2  0  0  0  0  0  0  0  0  0
   -4.0911   -1.4188    0.6376 O   0  0  0  0  0  0  0  0  0  0  0  0
   -6.1873   -2.4728    1.2110 C   0  0  0  0  0  0  0  0  0  0  0  0
   -5.9243   -2.3958    2.6093 O   0  0  0  0  0  0  0  0  0  0  0  0
   -7.2874   -0.9748   -1.2075 O   0  0  0  0  0  0  0  0  0  0  0  0
   -5.3076   -0.1394   -3.0982 O   0  0  0  0  0  0  0  0  0  0  0  0
   -2.9150    0.8984   -1.9988 O   0  0  0  0  0  0  0  0  0  0  0  0
   -1.8004   -2.7059    0.6658 O   0  0  0  0  0  0  0  0  0  0  0  0
    0.4800   -3.8413    0.6693 O   0  0  0  0  0  0  0  0  0  0  0  0
    8.8128   -4.2981    1.0909 O   0  0  0  0  0  0  0  0  0  0  0  0
    4.6277   -5.9432    1.0082 H   0  0  0  0  0  0  0  0  0  0  0  0
    7.0800   -6.1991    1.2162 H   0  0  0  0  0  0  0  0  0  0  0  0
    7.5641   -1.9538    0.7008 H   0  0  0  0  0  0  0  0  0  0  0  0
    5.1344   -1.6897    0.4787 H   0  0  0  0  0  0  0  0  0  0  0  0
    2.7548   -4.5791    0.1913 H   0  0  0  0  0  0  0  0  0  0  0  0
    2.9839   -1.7768    1.3891 H   0  0  0  0  0  0  0  0  0  0  0  0
    0.6503    2.7775    1.3457 H   0  0  0  0  0  0  0  0  0  0  0  0
    2.5437    2.0881   -0.9944 H   0  0  0  0  0  0  0  0  0  0  0  0
    2.7481    4.5490    0.8097 H   0  0  0  0  0  0  0  0  0  0  0  0
    1.7857    4.5222   -2.0918 H   0  0  0  0  0  0  0  0  0  0  0  0
    0.2883    5.0014    0.5618 H   0  0  0  0  0  0  0  0  0  0  0  0
   -1.7376    5.2209   -0.8753 H   0  0  0  0  0  0  0  0  0  0  0  0
   -0.7333    5.2360   -2.3203 H   0  0  0  0  0  0  0  0  0  0  0  0
    0.3784    7.0612   -1.3280 H   0  0  0  0  0  0  0  0  0  0  0  0
    3.0782    6.2622   -1.1446 H   0  0  0  0  0  0  0  0  0  0  0  0
    4.5519    3.5633   -0.2208 H   0  0  0  0  0  0  0  0  0  0  0  0
    2.9057    1.2592    1.2912 H   0  0  0  0  0  0  0  0  0  0  0  0
   -0.4457    1.0416   -1.7110 H   0  0  0  0  0  0  0  0  0  0  0  0
   -3.8310    0.6316    0.6280 H   0  0  0  0  0  0  0  0  0  0  0  0
   -3.2267   -1.1098   -1.8611 H   0  0  0  0  0  0  0  0  0  0  0  0
   -5.4876    0.8934   -1.3570 H   0  0  0  0  0  0  0  0  0  0  0  0
   -5.6466   -2.1686   -1.4961 H   0  0  0  0  0  0  0  0  0  0  0  0
   -5.8412   -0.3656    1.0161 H   0  0  0  0  0  0  0  0  0  0  0  0
   -7.2776   -2.4713    1.0734 H   0  0  0  0  0  0  0  0  0  0  0  0
   -5.7759   -3.4221    0.8414 H   0  0  0  0  0  0  0  0  0  0  0  0
   -6.4559   -3.0847    3.0452 H   0  0  0  0  0  0  0  0  0  0  0  0
   -7.7886   -1.7792   -0.9841 H   0  0  0  0  0  0  0  0  0  0  0  0
   -6.2785   -0.1680   -3.2199 H   0  0  0  0  0  0  0  0  0  0  0  0
   -3.3121    0.9790   -2.8914 H   0  0  0  0  0  0  0  0  0  0  0  0
   -2.7696   -2.5610    0.7641 H   0  0  0  0  0  0  0  0  0  0  0  0
   -0.4894   -3.7370    0.6276 H   0  0  0  0  0  0  0  0  0  0  0  0
    9.2660   -3.4522    0.9364 H   0  0  0  0  0  0  0  0  0  0  0  0
  1  2  2  0
  2  3  1  0
  3  4  2  0
  4  5  1  0
  5  6  2  0
  6  7  1  0
  7  8  2  0
  8  9  1  0
  9 10  2  0
 10 11  1  0
 11 12  2  0
 12 13  1  0
 13 14  2  0
 13 15  1  0
 15 16  1  0
 16 17  2  0
 15 18  1  0
 18 19  1  0
 19 20  1  0
 20 21  1  0
 21 22  1  0
 22 23  1  0
 22 24  1  0
 24 25  1  0
 21 26  1  0
 20 27  1  0
 19 28  1  0
 15 29  1  0
 12 30  1  0
 30 31  1  0
 31 32  1  0
 32 33  1  0
 33 34  1  0
 34 35  1  0
 34 36  1  0
 36 37  1  0
 33 38  1  0
 32 39  1  0
 31 40  1  0
 11 41  1  0
  9 42  1  0
  3 43  1  0
  6  1  1  0
 16 10  1  0
 23 18  1  0
 35 30  1  0
  1 44  1  0
  2 45  1  0
  4 46  1  0
  5 47  1  0
  7 48  1  0
  8 49  1  0
 18 50  1  1
 19 51  1  6
 20 52  1  1
 21 53  1  6
 22 54  1  1
 24 55  1  0
 24 56  1  0
 25 57  1  0
 26 58  1  0
 27 59  1  0
 28 60  1  0
 29 61  1  0
 30 62  1  1
 31 63  1  6
 32 64  1  1
 33 65  1  6
 34 66  1  1
 36 67  1  0
 36 68  1  0
 37 69  1  0
 38 70  1  0
 39 71  1  0
 40 72  1  0
 41 73  1  0
 42 74  1  0
 43 75  1  0
M  END
$$$$
