
     RDKit          3D

 46 49  0  0  0  0  0  0  0  0999 V2000
   -5.9611    1.6971   -1.5546 C   0  0  0  0  0  0  0  0  0  0  0  0
   -5.1280    0.5847   -1.1741 N   0  0  0  0  0  0  0  0  0  0  0  0
   -5.6623   -0.5853   -0.6841 C   0  0  0  0  0  0  0  0  0  0  0  0
   -6.8585   -0.6984   -0.4302 O   0  0  0  0  0  0  0  0  0  0  0  0
   -4.7321   -1.7314   -0.4109 C   0  0  0  0  0  0  0  0  0  0  0  0
   -5.2256   -2.6911    0.4983 C   0  0  0  0  0  0  0  0  0  0  0  0
   -4.4739   -3.8099    0.8584 C   0  0  0  0  0  0  0  0  0  0  0  0
   -3.2134   -3.9961    0.3102 C   0  0  0  0  0  0  0  0  0  0  0  0
   -2.7091   -3.0640   -0.5965 C   0  0  0  0  0  0  0  0  0  0  0  0
   -3.4494   -1.9219   -0.9647 C   0  0  0  0  0  0  0  0  0  0  0  0
   -2.6800   -0.8480   -2.1807 S   0  0  0  0  0  0  0  0  0  0  0  0
   -1.2848   -0.2022   -1.2632 C   0  0  0  0  0  0  0  0  0  0  0  0
   -1.4583    0.3903   -0.0045 C   0  0  0  0  0  0  0  0  0  0  0  0
   -0.3171    0.8815    0.6423 C   0  0  0  0  0  0  0  0  0  0  0  0
    0.9628    0.8103    0.1020 C   0  0  0  0  0  0  0  0  0  0  0  0
    1.1135    0.2369   -1.1769 C   0  0  0  0  0  0  0  0  0  0  0  0
   -0.0150   -0.2636   -1.8440 C   0  0  0  0  0  0  0  0  0  0  0  0
    1.8086    1.4124    1.0862 C   0  0  0  0  0  0  0  0  0  0  0  0
    1.0969    1.8581    2.1318 N   0  0  0  0  0  0  0  0  0  0  0  0
   -0.1648    1.5076    1.8477 N   0  0  0  0  0  0  0  0  0  0  0  0
    3.2283    1.5953    1.0378 C   0  0  0  0  0  0  0  0  0  0  0  0
    4.1201    0.7989    0.4268 C   0  0  0  0  0  0  0  0  0  0  0  0
    5.5706    1.0136    0.4036 C   0  0  0  0  0  0  0  0  0  0  0  0
    6.2693    1.6325    1.4364 C   0  0  0  0  0  0  0  0  0  0  0  0
    7.6521    1.7649    1.3284 C   0  0  0  0  0  0  0  0  0  0  0  0
    8.2977    1.2689    0.2036 C   0  0  0  0  0  0  0  0  0  0  0  0
    7.5301    0.6524   -0.7684 C   0  0  0  0  0  0  0  0  0  0  0  0
    6.1887    0.5077   -0.6899 N   0  0  0  0  0  0  0  0  0  0  0  0
   -6.2868    1.5452   -2.5863 H   0  0  0  0  0  0  0  0  0  0  0  0
   -6.8348    1.7719   -0.9037 H   0  0  0  0  0  0  0  0  0  0  0  0
   -5.3664    2.6107   -1.4911 H   0  0  0  0  0  0  0  0  0  0  0  0
   -4.1785    0.5695   -1.5267 H   0  0  0  0  0  0  0  0  0  0  0  0
   -6.2173   -2.5694    0.9350 H   0  0  0  0  0  0  0  0  0  0  0  0
   -4.8794   -4.5349    1.5597 H   0  0  0  0  0  0  0  0  0  0  0  0
   -2.6244   -4.8688    0.5790 H   0  0  0  0  0  0  0  0  0  0  0  0
   -1.7228   -3.2429   -1.0224 H   0  0  0  0  0  0  0  0  0  0  0  0
   -2.4356    0.4727    0.4598 H   0  0  0  0  0  0  0  0  0  0  0  0
    2.0860    0.1872   -1.6591 H   0  0  0  0  0  0  0  0  0  0  0  0
    0.1171   -0.7025   -2.8317 H   0  0  0  0  0  0  0  0  0  0  0  0
   -0.8876    1.7374    2.5206 H   0  0  0  0  0  0  0  0  0  0  0  0
    3.5805    2.4628    1.5898 H   0  0  0  0  0  0  0  0  0  0  0  0
    3.8044   -0.0857   -0.1174 H   0  0  0  0  0  0  0  0  0  0  0  0
    5.7632    2.0011    2.3218 H   0  0  0  0  0  0  0  0  0  0  0  0
    8.2192    2.2471    2.1198 H   0  0  0  0  0  0  0  0  0  0  0  0
    9.3719    1.3561    0.0901 H   0  0  0  0  0  0  0  0  0  0  0  0
    7.9864    0.2417   -1.6641 H   0  0  0  0  0  0  0  0  0  0  0  0
  1  2  1  0
  2  3  1  0
  3  4  2  0
  3  5  1  0
  5  6  2  0
  6  7  1  0
  7  8  2  0
  8  9  1  0
  9 10  2  0
 10 11  1  0
 11 12  1  0
 12 13  2  0
 13 14  1  0
 14 15  2  0
 15 16  1  0
 16 17  2  0
 15 18  1  0
 18 19  2  0
 19 20  1  0
 18 21  1  0
 21 22  2  0
 22 23  1  0
 23 24  2  0
 24 25  1  0
 25 26  2  0
 26 27  1  0
 27 28  2  0
 10  5  1  0
 17 12  1  0
 20 14  1  0
 28 23  1  0
  1 29  1  0
  1 30  1  0
  1 31  1  0
  2 32  1  0
  6 33  1  0
  7 34  1  0
  8 35  1  0
  9 36  1  0
 13 37  1  0
 16 38  1  0
 17 39  1  0
 20 40  1  0
 21 41  1  0
 22 42  1  0
 24 43  1  0
 25 44  1  0
 26 45  1  0
 27 46  1  0
M  END
$$$$
