
     RDKit          3D

 82 86  0  0  0  0  0  0  0  0999 V2000
   -3.4216    2.6875    1.1866 C   0  0  0  0  0  0  0  0  0  0  0  0
   -2.7390    3.6849    0.4560 C   0  0  0  0  0  0  0  0  0  0  0  0
   -3.4026    4.3284   -0.5744 C   0  0  0  0  0  0  0  0  0  0  0  0
   -4.7271    4.0292   -0.8876 C   0  0  0  0  0  0  0  0  0  0  0  0
   -5.4214    3.0784   -0.1377 C   0  0  0  0  0  0  0  0  0  0  0  0
   -4.7605    2.3644    0.8684 C   0  0  0  0  0  0  0  0  0  0  0  0
   -5.4596    1.1819    1.5438 C   0  0  0  0  0  0  0  0  0  0  0  0
   -5.3774   -0.0713    0.6593 C   0  0  2  0  0  0  0  0  0  0  0  0
   -6.1440   -1.2279    1.2694 C   0  0  0  0  0  0  0  0  0  0  0  0
   -5.7286   -2.3264    1.5981 O   0  0  0  0  0  0  0  0  0  0  0  0
   -7.4631   -0.9651    1.3697 O   0  0  0  0  0  0  0  0  0  0  0  0
   -3.9907   -0.4439    0.5587 O   0  0  0  0  0  0  0  0  0  0  0  0
   -3.5946   -0.8962   -0.6558 C   0  0  0  0  0  0  0  0  0  0  0  0
   -4.3014   -1.0701   -1.6363 O   0  0  0  0  0  0  0  0  0  0  0  0
   -2.1294   -1.0881   -0.5855 C   0  0  0  0  0  0  0  0  0  0  0  0
   -1.4962   -1.4425   -1.7129 C   0  0  0  0  0  0  0  0  0  0  0  0
   -0.0641   -1.7165   -1.9435 C   0  0  0  0  0  0  0  0  0  0  0  0
    0.9004   -2.0449   -0.9960 C   0  0  0  0  0  0  0  0  0  0  0  0
    0.8620   -2.1055    0.4989 C   0  0  1  0  0  0  0  0  0  0  0  0
    2.0575   -3.0520    0.7514 C   0  0  2  0  0  0  0  0  0  0  0  0
    2.9857   -2.8322   -0.3636 O   0  0  0  0  0  0  0  0  0  0  0  0
    2.1770   -2.4299   -1.4077 C   0  0  0  0  0  0  0  0  0  0  0  0
    2.5744   -2.4198   -2.7332 C   0  0  0  0  0  0  0  0  0  0  0  0
    1.6530   -2.0617   -3.6931 C   0  0  0  0  0  0  0  0  0  0  0  0
    0.3455   -1.7102   -3.3085 C   0  0  0  0  0  0  0  0  0  0  0  0
    3.8488   -2.7966   -3.0492 O   0  0  0  0  0  0  0  0  0  0  0  0
    1.7614   -4.5670    0.8049 C   0  0  0  0  0  0  0  0  0  0  0  0
    0.4876   -5.0972    1.0280 C   0  0  0  0  0  0  0  0  0  0  0  0
    0.2558   -6.4671    0.9057 C   0  0  0  0  0  0  0  0  0  0  0  0
    1.2918   -7.3405    0.6193 C   0  0  0  0  0  0  0  0  0  0  0  0
    2.6020   -6.8596    0.5199 C   0  0  0  0  0  0  0  0  0  0  0  0
    2.8273   -5.4746    0.6185 C   0  0  0  0  0  0  0  0  0  0  0  0
    1.0097   -8.6575    0.4205 O   0  0  0  0  0  0  0  0  0  0  0  0
   -1.0117   -6.9232    1.0467 O   0  0  0  0  0  0  0  0  0  0  0  0
    1.1459   -0.7673    1.1647 C   0  0  0  0  0  0  0  0  0  0  0  0
    0.4266   -0.2866    2.0445 O   0  0  0  0  0  0  0  0  0  0  0  0
    2.2368   -0.1508    0.6415 O   0  0  0  0  0  0  0  0  0  0  0  0
    2.6928    1.0761    1.2311 C   0  0  2  0  0  0  0  0  0  0  0  0
    3.2328    1.9218    0.0585 C   0  0  0  0  0  0  0  0  0  0  0  0
    3.4860    3.3917    0.2797 C   0  0  0  0  0  0  0  0  0  0  0  0
    2.4236    4.2477    0.6456 C   0  0  0  0  0  0  0  0  0  0  0  0
    2.6565    5.6095    0.7501 C   0  0  0  0  0  0  0  0  0  0  0  0
    3.9090    6.1417    0.4422 C   0  0  0  0  0  0  0  0  0  0  0  0
    4.9608    5.3110    0.0599 C   0  0  0  0  0  0  0  0  0  0  0  0
    4.7508    3.9323   -0.0174 C   0  0  0  0  0  0  0  0  0  0  0  0
    4.0510    7.4928    0.5346 O   0  0  0  0  0  0  0  0  0  0  0  0
    1.6564    6.4458    1.1620 O   0  0  0  0  0  0  0  0  0  0  0  0
    3.7629    0.7051    2.2517 C   0  0  0  0  0  0  0  0  0  0  0  0
    4.2929   -0.3853    2.4079 O   0  0  0  0  0  0  0  0  0  0  0  0
    4.0545    1.7100    3.1043 O   0  0  0  0  0  0  0  0  0  0  0  0
   -5.3474    4.6557   -1.9248 O   0  0  0  0  0  0  0  0  0  0  0  0
   -2.7703    5.2433   -1.3714 O   0  0  0  0  0  0  0  0  0  0  0  0
   -2.8727    2.1118    1.9302 H   0  0  0  0  0  0  0  0  0  0  0  0
   -1.6943    3.9004    0.6794 H   0  0  0  0  0  0  0  0  0  0  0  0
   -6.4727    2.8847   -0.3708 H   0  0  0  0  0  0  0  0  0  0  0  0
   -6.4958    1.4545    1.7908 H   0  0  0  0  0  0  0  0  0  0  0  0
   -4.9662    0.9887    2.5046 H   0  0  0  0  0  0  0  0  0  0  0  0
   -5.7946    0.1415   -0.3392 H   0  0  0  0  0  0  0  0  0  0  0  0
   -7.8088   -1.8045    1.7227 H   0  0  0  0  0  0  0  0  0  0  0  0
   -1.6429   -0.8970    0.3635 H   0  0  0  0  0  0  0  0  0  0  0  0
   -2.1045   -1.5731   -2.6176 H   0  0  0  0  0  0  0  0  0  0  0  0
   -0.0698   -2.4901    0.8752 H   0  0  0  0  0  0  0  0  0  0  0  0
    2.5958   -2.7932    1.6693 H   0  0  0  0  0  0  0  0  0  0  0  0
    1.8895   -2.0487   -4.7508 H   0  0  0  0  0  0  0  0  0  0  0  0
   -0.3737   -1.4531   -4.0801 H   0  0  0  0  0  0  0  0  0  0  0  0
    3.8531   -2.9818   -4.0082 H   0  0  0  0  0  0  0  0  0  0  0  0
   -0.3806   -4.4757    1.2519 H   0  0  0  0  0  0  0  0  0  0  0  0
    3.4369   -7.5106    0.3324 H   0  0  0  0  0  0  0  0  0  0  0  0
    3.8398   -5.0842    0.4695 H   0  0  0  0  0  0  0  0  0  0  0  0
    1.8325   -9.1452    0.6006 H   0  0  0  0  0  0  0  0  0  0  0  0
   -1.1075   -7.5520    0.2863 H   0  0  0  0  0  0  0  0  0  0  0  0
    1.8643    1.5807    1.7648 H   0  0  0  0  0  0  0  0  0  0  0  0
    4.1430    1.4295   -0.3437 H   0  0  0  0  0  0  0  0  0  0  0  0
    2.5117    1.8272   -0.7779 H   0  0  0  0  0  0  0  0  0  0  0  0
    1.4226    3.8540    0.8514 H   0  0  0  0  0  0  0  0  0  0  0  0
    5.9562    5.7143   -0.1507 H   0  0  0  0  0  0  0  0  0  0  0  0
    5.5707    3.2840   -0.3519 H   0  0  0  0  0  0  0  0  0  0  0  0
    4.9284    7.6845    0.1477 H   0  0  0  0  0  0  0  0  0  0  0  0
    2.0637    7.3485    1.0691 H   0  0  0  0  0  0  0  0  0  0  0  0
    4.6617    1.2707    3.7459 H   0  0  0  0  0  0  0  0  0  0  0  0
   -4.5882    4.9853   -2.4560 H   0  0  0  0  0  0  0  0  0  0  0  0
   -2.2260    5.7867   -0.7590 H   0  0  0  0  0  0  0  0  0  0  0  0
  1  2  2  0
  2  3  1  0
  3  4  2  0
  4  5  1  0
  5  6  2  0
  6  7  1  0
  7  8  1  0
  8  9  1  0
  9 10  2  0
  9 11  1  0
  8 12  1  0
 12 13  1  0
 13 14  2  0
 13 15  1  0
 15 16  2  0
 16 17  1  0
 17 18  2  0
 18 19  1  0
 19 20  1  0
 20 21  1  0
 21 22  1  0
 22 23  2  0
 23 24  1  0
 24 25  2  0
 23 26  1  0
 20 27  1  0
 27 28  2  0
 28 29  1  0
 29 30  2  0
 30 31  1  0
 31 32  2  0
 30 33  1  0
 29 34  1  0
 19 35  1  0
 35 36  2  0
 35 37  1  0
 37 38  1  0
 38 39  1  0
 39 40  1  0
 40 41  2  0
 41 42  1  0
 42 43  2  0
 43 44  1  0
 44 45  2  0
 43 46  1  0
 42 47  1  0
 38 48  1  0
 48 49  2  0
 48 50  1  0
  4 51  1  0
  3 52  1  0
  6  1  1  0
 25 17  1  0
 22 18  1  0
 32 27  1  0
 45 40  1  0
  1 53  1  0
  2 54  1  0
  5 55  1  0
  7 56  1  0
  7 57  1  0
  8 58  1  6
 11 59  1  0
 15 60  1  0
 16 61  1  0
 19 62  1  6
 20 63  1  1
 24 64  1  0
 25 65  1  0
 26 66  1  0
 28 67  1  0
 31 68  1  0
 32 69  1  0
 33 70  1  0
 34 71  1  0
 38 72  1  1
 39 73  1  0
 39 74  1  0
 41 75  1  0
 44 76  1  0
 45 77  1  0
 46 78  1  0
 47 79  1  0
 50 80  1  0
 51 81  1  0
 52 82  1  0
M  END
$$$$
