
     RDKit          3D

 53 54  0  0  0  0  0  0  0  0999 V2000
   -9.4516    1.1664    0.0407 C   0  0  0  0  0  0  0  0  0  0  0  0
   -8.3154    0.7646    0.7919 O   0  0  0  0  0  0  0  0  0  0  0  0
   -7.1828    0.4205    0.0961 C   0  0  0  0  0  0  0  0  0  0  0  0
   -6.1042   -0.0598    0.8655 C   0  0  0  0  0  0  0  0  0  0  0  0
   -4.9084   -0.4241    0.2319 C   0  0  0  0  0  0  0  0  0  0  0  0
   -4.7678   -0.3071   -1.1583 C   0  0  0  0  0  0  0  0  0  0  0  0
   -5.8498    0.1529   -1.9131 C   0  0  0  0  0  0  0  0  0  0  0  0
   -7.0469    0.5206   -1.2920 C   0  0  0  0  0  0  0  0  0  0  0  0
   -3.5352   -0.7009   -1.8537 C   0  0  0  0  0  0  0  0  0  0  0  0
   -2.3016   -0.3923   -1.4192 C   0  0  0  0  0  0  0  0  0  0  0  0
   -1.0691   -0.7567   -2.0946 C   0  0  0  0  0  0  0  0  0  0  0  0
    0.1341   -0.4048   -1.6083 C   0  0  0  0  0  0  0  0  0  0  0  0
    1.3895   -0.7767   -2.3058 C   0  0  0  0  0  0  0  0  0  0  0  0
    1.3646   -1.3425   -3.3980 O   0  0  0  0  0  0  0  0  0  0  0  0
    2.6992   -0.4441   -1.6864 C   0  0  0  0  0  0  0  0  0  0  0  0
    2.9154   -0.1090   -0.4049 C   0  0  0  0  0  0  0  0  0  0  0  0
    4.2525    0.1971    0.1264 C   0  0  0  0  0  0  0  0  0  0  0  0
    5.3766   -0.5790   -0.1897 C   0  0  0  0  0  0  0  0  0  0  0  0
    6.6334   -0.2752    0.3512 C   0  0  0  0  0  0  0  0  0  0  0  0
    6.7675    0.8118    1.2376 C   0  0  0  0  0  0  0  0  0  0  0  0
    5.6422    1.5726    1.5667 C   0  0  0  0  0  0  0  0  0  0  0  0
    4.3942    1.2640    1.0178 C   0  0  0  0  0  0  0  0  0  0  0  0
    8.0303    1.0428    1.7231 O   0  0  0  0  0  0  0  0  0  0  0  0
    8.2031    2.1272    2.6243 C   0  0  0  0  0  0  0  0  0  0  0  0
    7.7816   -0.9832    0.0889 O   0  0  0  0  0  0  0  0  0  0  0  0
    7.7152   -2.0164   -0.8842 C   0  0  0  0  0  0  0  0  0  0  0  0
   -1.2409   -1.4808   -3.2572 O   0  0  0  0  0  0  0  0  0  0  0  0
   -6.3195   -0.1379    2.2200 O   0  0  0  0  0  0  0  0  0  0  0  0
   -5.2779   -0.6702    3.0259 C   0  0  0  0  0  0  0  0  0  0  0  0
  -10.2638    1.3688    0.7459 H   0  0  0  0  0  0  0  0  0  0  0  0
   -9.2536    2.0909   -0.5118 H   0  0  0  0  0  0  0  0  0  0  0  0
   -9.7853    0.3671   -0.6297 H   0  0  0  0  0  0  0  0  0  0  0  0
   -4.0745   -0.8144    0.8043 H   0  0  0  0  0  0  0  0  0  0  0  0
   -5.7673    0.2399   -2.9948 H   0  0  0  0  0  0  0  0  0  0  0  0
   -7.8516    0.8837   -1.9218 H   0  0  0  0  0  0  0  0  0  0  0  0
   -3.6709   -1.2507   -2.7829 H   0  0  0  0  0  0  0  0  0  0  0  0
   -2.1944    0.1857   -0.5036 H   0  0  0  0  0  0  0  0  0  0  0  0
    0.2045    0.1775   -0.7000 H   0  0  0  0  0  0  0  0  0  0  0  0
    3.5241   -0.5212   -2.3909 H   0  0  0  0  0  0  0  0  0  0  0  0
    2.1123   -0.0404    0.3220 H   0  0  0  0  0  0  0  0  0  0  0  0
    5.2527   -1.4314   -0.8495 H   0  0  0  0  0  0  0  0  0  0  0  0
    5.7012    2.4138    2.2477 H   0  0  0  0  0  0  0  0  0  0  0  0
    3.5363    1.8752    1.2908 H   0  0  0  0  0  0  0  0  0  0  0  0
    7.9531    3.0814    2.1483 H   0  0  0  0  0  0  0  0  0  0  0  0
    9.2603    2.1638    2.9053 H   0  0  0  0  0  0  0  0  0  0  0  0
    7.6212    1.9761    3.5399 H   0  0  0  0  0  0  0  0  0  0  0  0
    7.0672   -2.8324   -0.5471 H   0  0  0  0  0  0  0  0  0  0  0  0
    8.7232   -2.4235   -1.0092 H   0  0  0  0  0  0  0  0  0  0  0  0
    7.3912   -1.6269   -1.8558 H   0  0  0  0  0  0  0  0  0  0  0  0
   -0.3549   -1.6412   -3.6515 H   0  0  0  0  0  0  0  0  0  0  0  0
   -5.6281   -0.6794    4.0625 H   0  0  0  0  0  0  0  0  0  0  0  0
   -5.0476   -1.7034    2.7454 H   0  0  0  0  0  0  0  0  0  0  0  0
   -4.3837   -0.0386    2.9841 H   0  0  0  0  0  0  0  0  0  0  0  0
  1  2  1  0
  2  3  1  0
  3  4  2  0
  4  5  1  0
  5  6  2  0
  6  7  1  0
  7  8  2  0
  6  9  1  0
  9 10  2  0
 10 11  1  0
 11 12  2  0
 12 13  1  0
 13 14  2  0
 13 15  1  0
 15 16  2  0
 16 17  1  0
 17 18  2  0
 18 19  1  0
 19 20  2  0
 20 21  1  0
 21 22  2  0
 20 23  1  0
 23 24  1  0
 19 25  1  0
 25 26  1  0
 11 27  1  0
  4 28  1  0
 28 29  1  0
  8  3  1  0
 22 17  1  0
  1 30  1  0
  1 31  1  0
  1 32  1  0
  5 33  1  0
  7 34  1  0
  8 35  1  0
  9 36  1  0
 10 37  1  0
 12 38  1  0
 15 39  1  0
 16 40  1  0
 18 41  1  0
 21 42  1  0
 22 43  1  0
 24 44  1  0
 24 45  1  0
 24 46  1  0
 26 47  1  0
 26 48  1  0
 26 49  1  0
 27 50  1  0
 29 51  1  0
 29 52  1  0
 29 53  1  0
M  END
$$$$
