
     RDKit          3D

 50 53  0  0  0  0  0  0  0  0999 V2000
    5.6483    3.3931   -1.8469 C   0  0  0  0  0  0  0  0  0  0  0  0
    6.3077    2.2343   -1.4432 C   0  0  0  0  0  0  0  0  0  0  0  0
    5.6597    1.3109   -0.6181 C   0  0  0  0  0  0  0  0  0  0  0  0
    4.3450    1.5377   -0.1821 C   0  0  0  0  0  0  0  0  0  0  0  0
    3.6916    2.7054   -0.6056 C   0  0  0  0  0  0  0  0  0  0  0  0
    4.3401    3.6284   -1.4301 C   0  0  0  0  0  0  0  0  0  0  0  0
    3.6399    0.5695    0.6801 C   0  0  0  0  0  0  0  0  0  0  0  0
    4.2402   -0.0089    1.7278 C   0  0  0  0  0  0  0  0  0  0  0  0
    3.4948   -0.9681    2.5623 C   0  0  0  0  0  0  0  0  0  0  0  0
    4.0668   -1.5033    3.5014 O   0  0  0  0  0  0  0  0  0  0  0  0
    2.0865   -1.2146    2.1829 C   0  0  0  0  0  0  0  0  0  0  0  0
    1.2430   -2.0780    2.8785 C   0  0  0  0  0  0  0  0  0  0  0  0
   -0.0770   -2.2535    2.4532 C   0  0  0  0  0  0  0  0  0  0  0  0
   -0.5856   -1.5943    1.3302 C   0  0  0  0  0  0  0  0  0  0  0  0
    0.2549   -0.7235    0.6422 C   0  0  0  0  0  0  0  0  0  0  0  0
    1.5801   -0.5383    1.0686 C   0  0  0  0  0  0  0  0  0  0  0  0
    2.3241    0.3424    0.3197 O   0  0  0  0  0  0  0  0  0  0  0  0
   -1.8881   -1.8854    1.0222 O   0  0  0  0  0  0  0  0  0  0  0  0
   -2.4484   -1.2791   -0.1565 C   0  0  1  0  0  0  0  0  0  0  0  0
   -3.8017   -1.9654   -0.3941 C   0  0  1  0  0  0  0  0  0  0  0  0
   -4.4959   -1.3400   -1.6021 C   0  0  2  0  0  0  0  0  0  0  0  0
   -4.5443    0.1935   -1.5356 C   0  0  1  0  0  0  0  0  0  0  0  0
   -3.1884    0.7760   -1.1058 C   0  0  2  0  0  0  0  0  0  0  0  0
   -2.6618    0.1118    0.0464 O   0  0  0  0  0  0  0  0  0  0  0  0
   -3.3267    2.2609   -0.7598 C   0  0  0  0  0  0  0  0  0  0  0  0
   -2.8414    2.8450    0.1958 O   0  0  0  0  0  0  0  0  0  0  0  0
   -4.0284    2.9667   -1.6763 O   0  0  0  0  0  0  0  0  0  0  0  0
   -4.8918    0.6729   -2.8461 O   0  0  0  0  0  0  0  0  0  0  0  0
   -5.8306   -1.8698   -1.6797 O   0  0  0  0  0  0  0  0  0  0  0  0
   -3.6472   -3.3735   -0.6442 O   0  0  0  0  0  0  0  0  0  0  0  0
   -0.8733   -3.1003    3.1869 O   0  0  0  0  0  0  0  0  0  0  0  0
    1.6501   -2.7723    3.9830 O   0  0  0  0  0  0  0  0  0  0  0  0
    6.1534    4.1114   -2.4879 H   0  0  0  0  0  0  0  0  0  0  0  0
    7.3272    2.0465   -1.7717 H   0  0  0  0  0  0  0  0  0  0  0  0
    6.1930    0.4074   -0.3298 H   0  0  0  0  0  0  0  0  0  0  0  0
    2.6715    2.9112   -0.2874 H   0  0  0  0  0  0  0  0  0  0  0  0
    3.8233    4.5316   -1.7444 H   0  0  0  0  0  0  0  0  0  0  0  0
    5.2635    0.1870    2.0220 H   0  0  0  0  0  0  0  0  0  0  0  0
   -0.0814   -0.1592   -0.2214 H   0  0  0  0  0  0  0  0  0  0  0  0
   -1.7852   -1.4664   -1.0125 H   0  0  0  0  0  0  0  0  0  0  0  0
   -4.4409   -1.8740    0.4931 H   0  0  0  0  0  0  0  0  0  0  0  0
   -3.9985   -1.6554   -2.5284 H   0  0  0  0  0  0  0  0  0  0  0  0
   -5.3437    0.5019   -0.8501 H   0  0  0  0  0  0  0  0  0  0  0  0
   -2.4538    0.7149   -1.9191 H   0  0  0  0  0  0  0  0  0  0  0  0
   -3.9857    3.8876   -1.3322 H   0  0  0  0  0  0  0  0  0  0  0  0
   -5.0169    1.6406   -2.7741 H   0  0  0  0  0  0  0  0  0  0  0  0
   -5.7252   -2.8405   -1.7166 H   0  0  0  0  0  0  0  0  0  0  0  0
   -3.1450   -3.7405    0.1077 H   0  0  0  0  0  0  0  0  0  0  0  0
   -1.7715   -2.9977    2.8182 H   0  0  0  0  0  0  0  0  0  0  0  0
    0.8738   -3.2867    4.2796 H   0  0  0  0  0  0  0  0  0  0  0  0
  1  2  2  0
  2  3  1  0
  3  4  2  0
  4  5  1  0
  5  6  2  0
  4  7  1  0
  7  8  2  0
  8  9  1  0
  9 10  2  0
  9 11  1  0
 11 12  2  0
 12 13  1  0
 13 14  2  0
 14 15  1  0
 15 16  2  0
 16 17  1  0
 14 18  1  0
 18 19  1  0
 19 20  1  0
 20 21  1  0
 21 22  1  0
 22 23  1  0
 23 24  1  0
 23 25  1  0
 25 26  2  0
 25 27  1  0
 22 28  1  0
 21 29  1  0
 20 30  1  0
 13 31  1  0
 12 32  1  0
  6  1  1  0
 17  7  1  0
 16 11  1  0
 24 19  1  0
  1 33  1  0
  2 34  1  0
  3 35  1  0
  5 36  1  0
  6 37  1  0
  8 38  1  0
 15 39  1  0
 19 40  1  6
 20 41  1  1
 21 42  1  6
 22 43  1  1
 23 44  1  6
 27 45  1  0
 28 46  1  0
 29 47  1  0
 30 48  1  0
 31 49  1  0
 32 50  1  0
M  END
$$$$
