
     RDKit          3D

 90 92  0  0  0  0  0  0  0  0999 V2000
    8.3173    0.4454   -0.0261 C   0  0  0  0  0  0  0  0  0  0  0  0
    8.0542   -0.9454   -0.6307 C   0  0  0  0  0  0  0  0  0  0  0  0
    6.7017   -1.3938   -0.3825 N   0  0  0  0  0  0  0  0  0  0  0  0
    6.4085   -2.7686   -0.7801 C   0  0  0  0  0  0  0  0  0  0  0  0
    4.9455   -3.1018   -0.3819 C   0  0  0  0  0  0  0  0  0  0  0  0
    4.7257   -2.8866    1.0626 N   0  0  0  0  0  0  0  0  0  0  0  0
    3.3306   -2.6141    1.4211 C   0  0  0  0  0  0  0  0  0  0  0  0
    2.7690   -1.2685    0.9188 C   0  0  0  0  0  0  0  0  0  0  0  0
    3.7174   -0.0966    1.2097 C   0  0  0  0  0  0  0  0  0  0  0  0
    3.2779    1.2442    0.7854 N   0  0  0  0  0  0  0  0  0  0  0  0
    4.2594    2.2711    1.2110 C   0  0  0  0  0  0  0  0  0  0  0  0
    5.7855    2.0426    0.9553 C   0  0  0  0  0  0  0  0  0  0  0  0
    6.1356    1.7576   -0.4402 N   0  0  0  0  0  0  0  0  0  0  0  0
    7.5758    1.6282   -0.6774 C   0  0  0  0  0  0  0  0  0  0  0  0
    2.9882    1.3350   -0.6539 C   0  0  0  0  0  0  0  0  0  0  0  0
    1.5269    1.6684   -0.8928 C   0  0  0  0  0  0  0  0  0  0  0  0
    1.0570    2.9715   -0.6670 C   0  0  0  0  0  0  0  0  0  0  0  0
   -0.2856    3.2959   -0.8759 C   0  0  0  0  0  0  0  0  0  0  0  0
   -1.1922    2.3187   -1.3055 C   0  0  0  0  0  0  0  0  0  0  0  0
   -0.7234    1.0170   -1.5349 C   0  0  0  0  0  0  0  0  0  0  0  0
    0.6206    0.6945   -1.3289 C   0  0  0  0  0  0  0  0  0  0  0  0
   -2.6469    2.6741   -1.5462 C   0  0  0  0  0  0  0  0  0  0  0  0
   -3.6006    1.7411   -0.9089 N   0  0  0  0  0  0  0  0  0  0  0  0
   -4.9492    1.9503   -1.4802 C   0  0  0  0  0  0  0  0  0  0  0  0
   -5.9028    0.7629   -1.2824 C   0  0  0  0  0  0  0  0  0  0  0  0
   -7.1104    1.1063   -0.4070 C   0  0  0  0  0  0  0  0  0  0  0  0
   -7.7237   -0.0353    0.2762 N   0  0  0  0  0  0  0  0  0  0  0  0
   -8.3374   -1.0436   -0.5951 C   0  0  0  0  0  0  0  0  0  0  0  0
   -7.4466   -2.1996   -1.1121 C   0  0  0  0  0  0  0  0  0  0  0  0
   -6.8853   -3.1063   -0.0873 N   0  0  0  0  0  0  0  0  0  0  0  0
   -5.4863   -2.7751    0.2421 C   0  0  0  0  0  0  0  0  0  0  0  0
   -5.3333   -2.1565    1.6325 C   0  0  0  0  0  0  0  0  0  0  0  0
   -3.8924   -1.6888    1.9037 C   0  0  0  0  0  0  0  0  0  0  0  0
   -3.4477   -0.5889    1.0441 N   0  0  0  0  0  0  0  0  0  0  0  0
   -4.0445    0.6987    1.4297 C   0  0  0  0  0  0  0  0  0  0  0  0
   -3.5665    1.8991    0.5682 C   0  0  0  0  0  0  0  0  0  0  0  0
    9.3918    0.6429   -0.1402 H   0  0  0  0  0  0  0  0  0  0  0  0
    8.1425    0.4265    1.0563 H   0  0  0  0  0  0  0  0  0  0  0  0
    8.7666   -1.6478   -0.1804 H   0  0  0  0  0  0  0  0  0  0  0  0
    8.2512   -0.9190   -1.7081 H   0  0  0  0  0  0  0  0  0  0  0  0
    6.4568   -1.2984    0.6050 H   0  0  0  0  0  0  0  0  0  0  0  0
    7.0916   -3.4674   -0.2830 H   0  0  0  0  0  0  0  0  0  0  0  0
    6.5234   -2.8826   -1.8635 H   0  0  0  0  0  0  0  0  0  0  0  0
    4.7185   -4.1428   -0.6403 H   0  0  0  0  0  0  0  0  0  0  0  0
    4.2839   -2.4683   -0.9823 H   0  0  0  0  0  0  0  0  0  0  0  0
    5.0552   -3.7069    1.5691 H   0  0  0  0  0  0  0  0  0  0  0  0
    2.6865   -3.4332    1.0815 H   0  0  0  0  0  0  0  0  0  0  0  0
    3.2747   -2.6099    2.5161 H   0  0  0  0  0  0  0  0  0  0  0  0
    1.8010   -1.0877    1.4037 H   0  0  0  0  0  0  0  0  0  0  0  0
    2.5749   -1.3559   -0.1529 H   0  0  0  0  0  0  0  0  0  0  0  0
    3.8931   -0.0765    2.2929 H   0  0  0  0  0  0  0  0  0  0  0  0
    4.6694   -0.3117    0.7340 H   0  0  0  0  0  0  0  0  0  0  0  0
    3.9746    3.2437    0.7875 H   0  0  0  0  0  0  0  0  0  0  0  0
    4.1379    2.3992    2.2949 H   0  0  0  0  0  0  0  0  0  0  0  0
    6.1218    1.2261    1.6033 H   0  0  0  0  0  0  0  0  0  0  0  0
    6.3113    2.9469    1.2850 H   0  0  0  0  0  0  0  0  0  0  0  0
    5.7694    2.4984   -1.0348 H   0  0  0  0  0  0  0  0  0  0  0  0
    8.0667    2.5597   -0.3655 H   0  0  0  0  0  0  0  0  0  0  0  0
    7.7242    1.5618   -1.7623 H   0  0  0  0  0  0  0  0  0  0  0  0
    3.5653    2.1286   -1.1455 H   0  0  0  0  0  0  0  0  0  0  0  0
    3.2649    0.4269   -1.2039 H   0  0  0  0  0  0  0  0  0  0  0  0
    1.7404    3.7399   -0.3159 H   0  0  0  0  0  0  0  0  0  0  0  0
   -0.6183    4.3133   -0.6887 H   0  0  0  0  0  0  0  0  0  0  0  0
   -1.4158    0.2444   -1.8623 H   0  0  0  0  0  0  0  0  0  0  0  0
    0.9512   -0.3238   -1.5084 H   0  0  0  0  0  0  0  0  0  0  0  0
   -2.7724    2.6628   -2.6368 H   0  0  0  0  0  0  0  0  0  0  0  0
   -2.8518    3.7020   -1.2194 H   0  0  0  0  0  0  0  0  0  0  0  0
   -5.3866    2.8951   -1.1293 H   0  0  0  0  0  0  0  0  0  0  0  0
   -4.8481    2.0588   -2.5693 H   0  0  0  0  0  0  0  0  0  0  0  0
   -6.2692    0.4341   -2.2658 H   0  0  0  0  0  0  0  0  0  0  0  0
   -5.3526   -0.0849   -0.8762 H   0  0  0  0  0  0  0  0  0  0  0  0
   -7.8625    1.6355   -1.0043 H   0  0  0  0  0  0  0  0  0  0  0  0
   -6.7992    1.8077    0.3749 H   0  0  0  0  0  0  0  0  0  0  0  0
   -8.4461    0.3174    0.9032 H   0  0  0  0  0  0  0  0  0  0  0  0
   -8.8331   -0.5564   -1.4457 H   0  0  0  0  0  0  0  0  0  0  0  0
   -9.1478   -1.5082   -0.0149 H   0  0  0  0  0  0  0  0  0  0  0  0
   -8.1055   -2.8222   -1.7336 H   0  0  0  0  0  0  0  0  0  0  0  0
   -6.6850   -1.8379   -1.8092 H   0  0  0  0  0  0  0  0  0  0  0  0
   -6.8721   -4.0408   -0.4920 H   0  0  0  0  0  0  0  0  0  0  0  0
   -4.9236   -3.7191    0.2468 H   0  0  0  0  0  0  0  0  0  0  0  0
   -5.0080   -2.1734   -0.5354 H   0  0  0  0  0  0  0  0  0  0  0  0
   -5.5977   -2.9110    2.3850 H   0  0  0  0  0  0  0  0  0  0  0  0
   -6.0334   -1.3316    1.7833 H   0  0  0  0  0  0  0  0  0  0  0  0
   -3.2171   -2.5374    1.7384 H   0  0  0  0  0  0  0  0  0  0  0  0
   -3.7846   -1.4136    2.9600 H   0  0  0  0  0  0  0  0  0  0  0  0
   -2.4323   -0.4966    1.0702 H   0  0  0  0  0  0  0  0  0  0  0  0
   -3.7784    0.9208    2.4716 H   0  0  0  0  0  0  0  0  0  0  0  0
   -5.1325    0.6440    1.3977 H   0  0  0  0  0  0  0  0  0  0  0  0
   -2.5327    2.0775    0.8927 H   0  0  0  0  0  0  0  0  0  0  0  0
   -4.1240    2.7976    0.8676 H   0  0  0  0  0  0  0  0  0  0  0  0
  1  2  1  0
  2  3  1  0
  3  4  1  0
  4  5  1  0
  5  6  1  0
  6  7  1  0
  7  8  1  0
  8  9  1  0
  9 10  1  0
 10 11  1  0
 11 12  1  0
 12 13  1  0
 13 14  1  0
 10 15  1  0
 15 16  1  0
 16 17  2  0
 17 18  1  0
 18 19  2  0
 19 20  1  0
 20 21  2  0
 19 22  1  0
 22 23  1  0
 23 24  1  0
 24 25  1  0
 25 26  1  0
 26 27  1  0
 27 28  1  0
 28 29  1  0
 29 30  1  0
 30 31  1  0
 31 32  1  0
 32 33  1  0
 33 34  1  0
 34 35  1  0
 35 36  1  0
 14  1  1  0
 21 16  1  0
 36 23  1  0
  1 37  1  0
  1 38  1  0
  2 39  1  0
  2 40  1  0
  3 41  1  0
  4 42  1  0
  4 43  1  0
  5 44  1  0
  5 45  1  0
  6 46  1  0
  7 47  1  0
  7 48  1  0
  8 49  1  0
  8 50  1  0
  9 51  1  0
  9 52  1  0
 11 53  1  0
 11 54  1  0
 12 55  1  0
 12 56  1  0
 13 57  1  0
 14 58  1  0
 14 59  1  0
 15 60  1  0
 15 61  1  0
 17 62  1  0
 18 63  1  0
 20 64  1  0
 21 65  1  0
 22 66  1  0
 22 67  1  0
 24 68  1  0
 24 69  1  0
 25 70  1  0
 25 71  1  0
 26 72  1  0
 26 73  1  0
 27 74  1  0
 28 75  1  0
 28 76  1  0
 29 77  1  0
 29 78  1  0
 30 79  1  0
 31 80  1  0
 31 81  1  0
 32 82  1  0
 32 83  1  0
 33 84  1  0
 33 85  1  0
 34 86  1  0
 35 87  1  0
 35 88  1  0
 36 89  1  0
 36 90  1  0
M  END
$$$$
