
     RDKit          3D

 51 54  0  0  0  0  0  0  0  0999 V2000
    0.4773    1.7174   -0.4460 C   0  0  0  0  0  0  0  0  0  0  0  0
    0.0508    1.1165    0.8944 C   0  0  2  0  0  0  0  0  0  0  0  0
    1.1772    0.2157    1.4434 C   0  0  2  0  0  0  0  0  0  0  0  0
    2.3362    1.0371    1.7102 O   0  0  0  0  0  0  0  0  0  0  0  0
    2.7342    1.8391    0.6687 C   0  0  0  0  0  0  0  0  0  0  0  0
    4.0433    2.3166    0.7515 C   0  0  0  0  0  0  0  0  0  0  0  0
    4.5463    3.1233   -0.2593 C   0  0  0  0  0  0  0  0  0  0  0  0
    3.7589    3.4627   -1.3515 C   0  0  0  0  0  0  0  0  0  0  0  0
    2.4472    2.9935   -1.4215 C   0  0  0  0  0  0  0  0  0  0  0  0
    1.9039    2.1921   -0.4072 C   0  0  0  0  0  0  0  0  0  0  0  0
    1.7425    3.3712   -2.5307 O   0  0  0  0  0  0  0  0  0  0  0  0
    5.8325    3.5623   -0.1455 O   0  0  0  0  0  0  0  0  0  0  0  0
    1.6016   -1.0514    0.6924 C   0  0  0  0  0  0  0  0  0  0  0  0
    2.8291   -1.6667    1.0358 C   0  0  0  0  0  0  0  0  0  0  0  0
    3.2469   -2.8300    0.3934 C   0  0  0  0  0  0  0  0  0  0  0  0
    2.4517   -3.4092   -0.5831 C   0  0  0  0  0  0  0  0  0  0  0  0
    1.2381   -2.8317   -0.9189 C   0  0  0  0  0  0  0  0  0  0  0  0
    0.8052   -1.6692   -0.2882 C   0  0  0  0  0  0  0  0  0  0  0  0
    0.4502   -3.4027   -1.8763 O   0  0  0  0  0  0  0  0  0  0  0  0
    2.8487   -4.5524   -1.2210 O   0  0  0  0  0  0  0  0  0  0  0  0
    4.4341   -3.4375    0.6939 O   0  0  0  0  0  0  0  0  0  0  0  0
   -1.1915    0.3929    0.8074 O   0  0  0  0  0  0  0  0  0  0  0  0
   -2.3173    1.1417    0.7394 C   0  0  0  0  0  0  0  0  0  0  0  0
   -2.3618    2.3609    0.7081 O   0  0  0  0  0  0  0  0  0  0  0  0
   -3.5296    0.2817    0.7052 C   0  0  0  0  0  0  0  0  0  0  0  0
   -4.7822    0.9208    0.6281 C   0  0  0  0  0  0  0  0  0  0  0  0
   -5.9428    0.1553    0.5989 C   0  0  0  0  0  0  0  0  0  0  0  0
   -5.8655   -1.2311    0.6461 C   0  0  0  0  0  0  0  0  0  0  0  0
   -4.6307   -1.8613    0.7239 C   0  0  0  0  0  0  0  0  0  0  0  0
   -3.4568   -1.1192    0.7537 C   0  0  0  0  0  0  0  0  0  0  0  0
   -4.5609   -3.2230    0.7735 O   0  0  0  0  0  0  0  0  0  0  0  0
   -7.0009   -1.9937    0.6188 O   0  0  0  0  0  0  0  0  0  0  0  0
   -7.1845    0.7217    0.5256 O   0  0  0  0  0  0  0  0  0  0  0  0
    0.3536    0.9914   -1.2574 H   0  0  0  0  0  0  0  0  0  0  0  0
   -0.1836    2.5599   -0.6814 H   0  0  0  0  0  0  0  0  0  0  0  0
   -0.0738    1.9365    1.6183 H   0  0  0  0  0  0  0  0  0  0  0  0
    0.8356   -0.1487    2.4222 H   0  0  0  0  0  0  0  0  0  0  0  0
    4.6706    2.0537    1.5979 H   0  0  0  0  0  0  0  0  0  0  0  0
    4.1419    4.0862   -2.1528 H   0  0  0  0  0  0  0  0  0  0  0  0
    0.8869    2.9148   -2.5506 H   0  0  0  0  0  0  0  0  0  0  0  0
    6.0365    4.1199   -0.9148 H   0  0  0  0  0  0  0  0  0  0  0  0
    3.4526   -1.2194    1.8067 H   0  0  0  0  0  0  0  0  0  0  0  0
   -0.1592   -1.2725   -0.5843 H   0  0  0  0  0  0  0  0  0  0  0  0
    0.9468   -4.1974   -2.1591 H   0  0  0  0  0  0  0  0  0  0  0  0
    3.7152   -4.7612   -0.8149 H   0  0  0  0  0  0  0  0  0  0  0  0
    4.8886   -2.8946    1.3618 H   0  0  0  0  0  0  0  0  0  0  0  0
   -4.8319    2.0062    0.5937 H   0  0  0  0  0  0  0  0  0  0  0  0
   -2.5067   -1.6423    0.8142 H   0  0  0  0  0  0  0  0  0  0  0  0
   -5.4913   -3.5243    0.7308 H   0  0  0  0  0  0  0  0  0  0  0  0
   -7.7305   -1.3421    0.5659 H   0  0  0  0  0  0  0  0  0  0  0  0
   -7.0826    1.6900    0.5033 H   0  0  0  0  0  0  0  0  0  0  0  0
  1  2  1  0
  2  3  1  0
  3  4  1  0
  4  5  1  0
  5  6  2  0
  6  7  1  0
  7  8  2  0
  8  9  1  0
  9 10  2  0
  9 11  1  0
  7 12  1  0
  3 13  1  0
 13 14  2  0
 14 15  1  0
 15 16  2  0
 16 17  1  0
 17 18  2  0
 17 19  1  0
 16 20  1  0
 15 21  1  0
  2 22  1  0
 22 23  1  0
 23 24  2  0
 23 25  1  0
 25 26  2  0
 26 27  1  0
 27 28  2  0
 28 29  1  0
 29 30  2  0
 29 31  1  0
 28 32  1  0
 27 33  1  0
 10  1  1  0
 10  5  1  0
 18 13  1  0
 30 25  1  0
  1 34  1  0
  1 35  1  0
  2 36  1  1
  3 37  1  1
  6 38  1  0
  8 39  1  0
 11 40  1  0
 12 41  1  0
 14 42  1  0
 18 43  1  0
 19 44  1  0
 20 45  1  0
 21 46  1  0
 26 47  1  0
 30 48  1  0
 31 49  1  0
 32 50  1  0
 33 51  1  0
M  END
$$$$
