
     RDKit          3D

 51 54  0  0  0  0  0  0  0  0999 V2000
   -5.4303   -4.4265   -0.7890 O   0  0  0  0  0  0  0  0  0  0  0  0
   -4.2572   -3.7715   -0.5543 C   0  0  0  0  0  0  0  0  0  0  0  0
   -3.8645   -2.6880   -1.3314 C   0  0  0  0  0  0  0  0  0  0  0  0
   -2.6575   -2.0417   -1.0532 C   0  0  0  0  0  0  0  0  0  0  0  0
   -1.8312   -2.4902   -0.0157 C   0  0  0  0  0  0  0  0  0  0  0  0
   -0.5275   -1.8036    0.2720 C   0  0  0  0  0  0  0  0  0  0  0  0
   -0.0596   -1.0295   -0.9550 C   0  0  0  0  0  0  0  0  0  0  0  0
    1.0772   -0.2023   -0.6360 O   0  0  0  0  0  0  0  0  0  0  0  0
    2.2832   -0.8157   -0.6470 C   0  0  0  0  0  0  0  0  0  0  0  0
    2.4905   -1.9819   -0.9417 O   0  0  0  0  0  0  0  0  0  0  0  0
    3.3644    0.1258   -0.2534 C   0  0  0  0  0  0  0  0  0  0  0  0
    4.6920   -0.3377   -0.3300 C   0  0  0  0  0  0  0  0  0  0  0  0
    5.7359    0.5054    0.0345 C   0  0  0  0  0  0  0  0  0  0  0  0
    7.0426    0.1085   -0.0208 O   0  0  0  0  0  0  0  0  0  0  0  0
    5.4690    1.7961    0.4736 C   0  0  0  0  0  0  0  0  0  0  0  0
    6.4890    2.6332    0.8358 O   0  0  0  0  0  0  0  0  0  0  0  0
    4.1598    2.2525    0.5527 C   0  0  0  0  0  0  0  0  0  0  0  0
    3.9051    3.5193    0.9906 O   0  0  0  0  0  0  0  0  0  0  0  0
    3.0994    1.4302    0.1927 C   0  0  0  0  0  0  0  0  0  0  0  0
   -1.2170   -0.1775   -1.5157 C   0  0  0  0  0  0  0  0  0  0  0  0
   -2.3814   -0.9589   -1.8453 O   0  0  0  0  0  0  0  0  0  0  0  0
   -1.5829    1.0603   -0.6961 C   0  0  0  0  0  0  0  0  0  0  0  0
   -0.8736    2.2582   -0.9230 C   0  0  0  0  0  0  0  0  0  0  0  0
   -1.1664    3.3992   -0.1870 C   0  0  0  0  0  0  0  0  0  0  0  0
   -0.4647    4.5448   -0.4230 O   0  0  0  0  0  0  0  0  0  0  0  0
   -2.1591    3.3748    0.7791 C   0  0  0  0  0  0  0  0  0  0  0  0
   -2.4268    4.5113    1.4928 O   0  0  0  0  0  0  0  0  0  0  0  0
   -2.8707    2.2066    1.0157 C   0  0  0  0  0  0  0  0  0  0  0  0
   -3.8401    2.2360    1.9802 O   0  0  0  0  0  0  0  0  0  0  0  0
   -2.5924    1.0516    0.2867 C   0  0  0  0  0  0  0  0  0  0  0  0
   -2.2621   -3.5714    0.7626 C   0  0  0  0  0  0  0  0  0  0  0  0
   -1.4757   -3.9867    1.8003 O   0  0  0  0  0  0  0  0  0  0  0  0
   -3.4678   -4.2170    0.4979 C   0  0  0  0  0  0  0  0  0  0  0  0
   -5.8539   -4.0370   -1.5725 H   0  0  0  0  0  0  0  0  0  0  0  0
   -4.4839   -2.3257   -2.1461 H   0  0  0  0  0  0  0  0  0  0  0  0
    0.2420   -2.5359    0.5438 H   0  0  0  0  0  0  0  0  0  0  0  0
   -0.6405   -1.1370    1.1355 H   0  0  0  0  0  0  0  0  0  0  0  0
    0.2128   -1.7477   -1.7429 H   0  0  0  0  0  0  0  0  0  0  0  0
    4.8892   -1.3504   -0.6725 H   0  0  0  0  0  0  0  0  0  0  0  0
    7.0720   -0.8121   -0.3373 H   0  0  0  0  0  0  0  0  0  0  0  0
    7.2995    2.1008    0.6985 H   0  0  0  0  0  0  0  0  0  0  0  0
    4.7859    3.9039    1.1748 H   0  0  0  0  0  0  0  0  0  0  0  0
    2.0861    1.8147    0.2694 H   0  0  0  0  0  0  0  0  0  0  0  0
   -0.8738    0.2082   -2.4859 H   0  0  0  0  0  0  0  0  0  0  0  0
   -0.0852    2.3067   -1.6708 H   0  0  0  0  0  0  0  0  0  0  0  0
   -0.8225    5.1893    0.2204 H   0  0  0  0  0  0  0  0  0  0  0  0
   -3.1475    4.2452    2.1000 H   0  0  0  0  0  0  0  0  0  0  0  0
   -4.2388    1.3496    2.0336 H   0  0  0  0  0  0  0  0  0  0  0  0
   -3.1591    0.1471    0.4804 H   0  0  0  0  0  0  0  0  0  0  0  0
   -1.8777   -4.7745    2.2033 H   0  0  0  0  0  0  0  0  0  0  0  0
   -3.8045   -5.0589    1.0940 H   0  0  0  0  0  0  0  0  0  0  0  0
  1  2  1  0
  2  3  2  0
  3  4  1  0
  4  5  2  0
  5  6  1  0
  6  7  1  0
  7  8  1  0
  8  9  1  0
  9 10  2  0
  9 11  1  0
 11 12  2  0
 12 13  1  0
 13 14  1  0
 13 15  2  0
 15 16  1  0
 15 17  1  0
 17 18  1  0
 17 19  2  0
  7 20  1  0
 20 21  1  0
 20 22  1  0
 22 23  2  0
 23 24  1  0
 24 25  1  0
 24 26  2  0
 26 27  1  0
 26 28  1  0
 28 29  1  0
 28 30  2  0
  5 31  1  0
 31 32  1  0
 31 33  2  0
 33  2  1  0
 21  4  1  0
 30 22  1  0
 19 11  1  0
  1 34  1  0
  3 35  1  0
  6 36  1  0
  6 37  1  0
  7 38  1  0
 12 39  1  0
 14 40  1  0
 16 41  1  0
 18 42  1  0
 19 43  1  0
 20 44  1  0
 23 45  1  0
 25 46  1  0
 27 47  1  0
 29 48  1  0
 30 49  1  0
 32 50  1  0
 33 51  1  0
M  END
$$$$
