
     RDKit          3D

 52 54  0  0  0  0  0  0  0  0999 V2000
    5.4866    0.0911    1.1704 C   0  0  0  0  0  0  0  0  0  0  0  0
    4.7540   -0.2165   -0.1379 C   0  0  0  0  0  0  0  0  0  0  0  0
    5.4142    0.4633   -1.3408 C   0  0  0  0  0  0  0  0  0  0  0  0
    3.2613    0.0525   -0.0452 C   0  0  0  0  0  0  0  0  0  0  0  0
    2.6605    1.3049    0.0701 C   0  0  0  0  0  0  0  0  0  0  0  0
    1.2619    1.4359    0.1200 C   0  0  0  0  0  0  0  0  0  0  0  0
    0.3942    0.3365    0.0510 C   0  0  0  0  0  0  0  0  0  0  0  0
    0.9912   -0.9373    0.0059 C   0  0  0  0  0  0  0  0  0  0  0  0
    2.3972   -1.0589   -0.0650 C   0  0  0  0  0  0  0  0  0  0  0  0
    0.1857   -2.2117    0.0037 C   0  0  0  0  0  0  0  0  0  0  0  0
   -1.2522   -2.0269    0.4727 C   0  0  0  0  0  0  0  0  0  0  0  0
   -1.8775   -0.8239   -0.2454 C   0  0  2  0  0  0  0  0  0  0  0  0
   -1.1437    0.5162    0.1203 C   0  0  2  0  0  0  0  0  0  0  0  0
   -1.6117    1.5818   -0.9282 C   0  0  0  0  0  0  0  0  0  0  0  0
   -3.0092    1.3557   -1.5232 C   0  0  0  0  0  0  0  0  0  0  0  0
   -3.9596    0.6431   -0.5713 C   0  0  0  0  0  0  0  0  0  0  0  0
   -3.4459   -0.7630   -0.1691 C   0  0  0  0  0  0  0  0  0  0  0  0
   -4.0182   -1.1229    1.2166 C   0  0  0  0  0  0  0  0  0  0  0  0
   -4.0287   -1.7929   -1.1722 C   0  0  0  0  0  0  0  0  0  0  0  0
   -1.4579    0.9378    1.5778 C   0  0  0  0  0  0  0  0  0  0  0  0
   -1.0783    0.3699    2.5942 O   0  0  0  0  0  0  0  0  0  0  0  0
   -2.2467    2.0213    1.7143 O   0  0  0  0  0  0  0  0  0  0  0  0
    0.7581    2.7032    0.2748 O   0  0  0  0  0  0  0  0  0  0  0  0
    3.3476    2.4894    0.1544 O   0  0  0  0  0  0  0  0  0  0  0  0
    5.4831    1.1557    1.4192 H   0  0  0  0  0  0  0  0  0  0  0  0
    5.0275   -0.4451    2.0087 H   0  0  0  0  0  0  0  0  0  0  0  0
    6.5332   -0.2264    1.1057 H   0  0  0  0  0  0  0  0  0  0  0  0
    4.8889   -1.2943   -0.3072 H   0  0  0  0  0  0  0  0  0  0  0  0
    4.8830    0.2173   -2.2670 H   0  0  0  0  0  0  0  0  0  0  0  0
    5.4425    1.5525   -1.2539 H   0  0  0  0  0  0  0  0  0  0  0  0
    6.4492    0.1205   -1.4498 H   0  0  0  0  0  0  0  0  0  0  0  0
    2.8215   -2.0617   -0.1285 H   0  0  0  0  0  0  0  0  0  0  0  0
    0.6666   -2.9576    0.6484 H   0  0  0  0  0  0  0  0  0  0  0  0
    0.1871   -2.6125   -1.0180 H   0  0  0  0  0  0  0  0  0  0  0  0
   -1.2777   -1.8966    1.5595 H   0  0  0  0  0  0  0  0  0  0  0  0
   -1.8016   -2.9496    0.2574 H   0  0  0  0  0  0  0  0  0  0  0  0
   -1.6474   -0.9909   -1.3122 H   0  0  0  0  0  0  0  0  0  0  0  0
   -1.5887    2.5920   -0.5030 H   0  0  0  0  0  0  0  0  0  0  0  0
   -0.9132    1.6111   -1.7762 H   0  0  0  0  0  0  0  0  0  0  0  0
   -3.4349    2.3223   -1.8181 H   0  0  0  0  0  0  0  0  0  0  0  0
   -2.9178    0.7730   -2.4485 H   0  0  0  0  0  0  0  0  0  0  0  0
   -4.1124    1.2701    0.3134 H   0  0  0  0  0  0  0  0  0  0  0  0
   -4.9490    0.5699   -1.0408 H   0  0  0  0  0  0  0  0  0  0  0  0
   -3.6538   -0.4566    2.0016 H   0  0  0  0  0  0  0  0  0  0  0  0
   -3.7696   -2.1491    1.5065 H   0  0  0  0  0  0  0  0  0  0  0  0
   -5.1123   -1.0472    1.2153 H   0  0  0  0  0  0  0  0  0  0  0  0
   -3.7198   -2.8148   -0.9299 H   0  0  0  0  0  0  0  0  0  0  0  0
   -5.1249   -1.7760   -1.1649 H   0  0  0  0  0  0  0  0  0  0  0  0
   -3.7052   -1.5808   -2.1972 H   0  0  0  0  0  0  0  0  0  0  0  0
   -2.2800    2.1521    2.6841 H   0  0  0  0  0  0  0  0  0  0  0  0
    1.5513    3.2765    0.2943 H   0  0  0  0  0  0  0  0  0  0  0  0
    4.2918    2.2975    0.2471 H   0  0  0  0  0  0  0  0  0  0  0  0
  1  2  1  0
  2  3  1  0
  2  4  1  0
  4  5  2  0
  5  6  1  0
  6  7  2  0
  7  8  1  0
  8  9  2  0
  8 10  1  0
 10 11  1  0
 11 12  1  0
 12 13  1  0
 13 14  1  0
 14 15  1  0
 15 16  1  0
 16 17  1  0
 17 18  1  0
 17 19  1  0
 13 20  1  1
 20 21  2  0
 20 22  1  0
  6 23  1  0
  5 24  1  0
  9  4  1  0
 13  7  1  0
 17 12  1  0
  1 25  1  0
  1 26  1  0
  1 27  1  0
  2 28  1  0
  3 29  1  0
  3 30  1  0
  3 31  1  0
  9 32  1  0
 10 33  1  0
 10 34  1  0
 11 35  1  0
 11 36  1  0
 12 37  1  6
 14 38  1  0
 14 39  1  0
 15 40  1  0
 15 41  1  0
 16 42  1  0
 16 43  1  0
 18 44  1  0
 18 45  1  0
 18 46  1  0
 19 47  1  0
 19 48  1  0
 19 49  1  0
 22 50  1  0
 23 51  1  0
 24 52  1  0
M  END
$$$$
