
     RDKit          3D

165172  0  0  0  0  0  0  0  0999 V2000
   12.4586    3.3979   -1.7928 C   0  0  0  0  0  0  0  0  0  0  0  0
   12.7797    2.8966   -0.4171 C   0  0  0  0  0  0  0  0  0  0  0  0
   11.9463    2.3126    0.4636 C   0  0  0  0  0  0  0  0  0  0  0  0
   12.4177    1.8593    1.8204 C   0  0  0  0  0  0  0  0  0  0  0  0
   10.5084    2.0938    0.1333 C   0  0  0  0  0  0  0  0  0  0  0  0
    9.9898    2.4820   -0.9144 O   0  0  0  0  0  0  0  0  0  0  0  0
    9.8767    1.4188    1.1360 O   0  0  0  0  0  0  0  0  0  0  0  0
    8.5151    1.0428    0.8481 C   0  0  1  0  0  0  0  0  0  0  0  0
    8.3336   -0.4838    0.9839 C   0  0  1  0  0  0  0  0  0  0  0  0
    6.9502   -0.9808    0.4642 C   0  0  2  0  0  0  0  0  0  0  0  0
    6.8593   -1.1436   -1.1059 C   0  0  1  0  0  0  0  0  0  0  0  0
    5.4081   -1.2518   -1.6952 C   0  0  0  0  0  0  0  0  0  0  0  0
    4.4132   -0.1737   -1.1654 C   0  0  2  0  0  0  0  0  0  0  0  0
    4.5215   -0.3433    0.3566 C   0  0  0  0  0  0  0  0  0  0  0  0
    3.6507   -1.1026    1.0386 C   0  0  0  0  0  0  0  0  0  0  0  0
    2.5836   -1.9381    0.4310 C   0  0  0  0  0  0  0  0  0  0  0  0
    2.0998   -1.6152   -1.0029 C   0  0  0  0  0  0  0  0  0  0  0  0
    2.8492   -0.3540   -1.6484 C   0  0  1  0  0  0  0  0  0  0  0  0
    2.0995    0.9804   -1.2544 C   0  0  0  0  0  0  0  0  0  0  0  0
    0.5768    0.9739   -1.1051 C   0  0  0  0  0  0  0  0  0  0  0  0
    0.1163   -0.2272   -0.2625 C   0  0  0  0  0  0  0  0  0  0  0  0
    0.4863   -1.5380   -1.0134 C   0  0  2  0  0  0  0  0  0  0  0  0
   -0.1657   -2.7522   -0.2855 C   0  0  0  0  0  0  0  0  0  0  0  0
   -1.6860   -2.6769   -0.2674 C   0  0  0  0  0  0  0  0  0  0  0  0
   -2.2510   -1.3690    0.3061 C   0  0  1  0  0  0  0  0  0  0  0  0
   -1.2764   -0.1415    0.4810 C   0  0  1  0  0  0  0  0  0  0  0  0
   -0.9454   -0.1244    2.0234 C   0  0  0  0  0  0  0  0  0  0  0  0
   -2.0012    1.2073    0.2280 C   0  0  0  0  0  0  0  0  0  0  0  0
   -2.2845    1.3914   -1.1434 O   0  0  0  0  0  0  0  0  0  0  0  0
   -3.4128   -1.0174   -0.4557 O   0  0  0  0  0  0  0  0  0  0  0  0
   -4.6417   -1.4936    0.0733 C   0  0  1  0  0  0  0  0  0  0  0  0
   -5.4195   -0.3591    0.7645 C   0  0  1  0  0  0  0  0  0  0  0  0
   -5.9527    0.6705   -0.2394 C   0  0  2  0  0  0  0  0  0  0  0  0
   -6.3781    0.0948   -1.5951 C   0  0  1  0  0  0  0  0  0  0  0  0
   -5.8192   -1.2891   -1.9902 C   0  0  2  0  0  0  0  0  0  0  0  0
   -5.4303   -2.1248   -0.9203 O   0  0  0  0  0  0  0  0  0  0  0  0
   -4.8712   -1.1636   -3.1941 C   0  0  0  0  0  0  0  0  0  0  0  0
   -5.0951   -0.4543   -4.1849 O   0  0  0  0  0  0  0  0  0  0  0  0
   -3.8201   -1.9982   -3.1830 O   0  0  0  0  0  0  0  0  0  0  0  0
   -7.8170   -0.0236   -1.5467 O   0  0  0  0  0  0  0  0  0  0  0  0
   -8.5008    0.8031   -2.4827 C   0  0  1  0  0  0  0  0  0  0  0  0
   -9.4123   -0.0866   -3.3580 C   0  0  1  0  0  0  0  0  0  0  0  0
  -10.7860    0.5742   -3.5646 C   0  0  2  0  0  0  0  0  0  0  0  0
  -10.6262    2.0912   -3.7793 C   0  0  1  0  0  0  0  0  0  0  0  0
   -9.8089    2.7520   -2.6378 C   0  0  2  0  0  0  0  0  0  0  0  0
   -9.2683    1.7662   -1.7461 O   0  0  0  0  0  0  0  0  0  0  0  0
  -10.6485    3.7483   -1.8308 C   0  0  0  0  0  0  0  0  0  0  0  0
  -11.0676    4.8162   -2.6699 O   0  0  0  0  0  0  0  0  0  0  0  0
   -9.9293    2.2992   -5.0188 O   0  0  0  0  0  0  0  0  0  0  0  0
  -11.6630    0.3137   -2.4653 O   0  0  0  0  0  0  0  0  0  0  0  0
   -8.7700   -0.3486   -4.6167 O   0  0  0  0  0  0  0  0  0  0  0  0
   -5.0269    1.7472   -0.4422 O   0  0  0  0  0  0  0  0  0  0  0  0
   -6.5444   -0.9079    1.4677 O   0  0  0  0  0  0  0  0  0  0  0  0
   -6.5413   -0.7067    2.8847 C   0  0  1  0  0  0  0  0  0  0  0  0
   -7.6936    0.2804    3.2053 C   0  0  1  0  0  0  0  0  0  0  0  0
   -9.0093   -0.5009    3.3402 C   0  0  2  0  0  0  0  0  0  0  0  0
   -8.9014   -1.5466    4.4629 C   0  0  1  0  0  0  0  0  0  0  0  0
   -7.4452   -2.0177    4.6740 C   0  0  2  0  0  0  0  0  0  0  0  0
   -6.6802   -1.9980    3.4754 O   0  0  0  0  0  0  0  0  0  0  0  0
   -7.4081   -3.4521    5.2226 C   0  0  0  0  0  0  0  0  0  0  0  0
   -8.1484   -3.5704    6.4311 O   0  0  0  0  0  0  0  0  0  0  0  0
   -9.3980   -0.9774    5.6823 O   0  0  0  0  0  0  0  0  0  0  0  0
   -9.3989   -1.1530    2.1263 O   0  0  0  0  0  0  0  0  0  0  0  0
   -7.3862    1.0372    4.3878 O   0  0  0  0  0  0  0  0  0  0  0  0
   -0.0737   -1.5613   -2.4627 C   0  0  0  0  0  0  0  0  0  0  0  0
    2.8175   -0.4880   -3.2079 C   0  0  0  0  0  0  0  0  0  0  0  0
    5.8278   -0.0322    1.0618 C   0  0  0  0  0  0  0  0  0  0  0  0
    6.1010    1.4748    1.2574 C   0  0  0  0  0  0  0  0  0  0  0  0
    7.5189    1.8181    1.7551 C   0  0  0  0  0  0  0  0  0  0  0  0
    7.6603    1.4803    3.2511 C   0  0  0  0  0  0  0  0  0  0  0  0
    7.7373    3.3425    1.6254 C   0  0  0  0  0  0  0  0  0  0  0  0
    4.8922    1.2292   -1.6695 C   0  0  0  0  0  0  0  0  0  0  0  0
    7.5543   -0.0922   -1.7714 O   0  0  0  0  0  0  0  0  0  0  0  0
    6.7031   -2.4242    1.0568 C   0  0  0  0  0  0  0  0  0  0  0  0
    7.6461   -3.3886    0.6011 O   0  0  0  0  0  0  0  0  0  0  0  0
    9.4246   -1.1652    0.3362 O   0  0  0  0  0  0  0  0  0  0  0  0
   10.1978   -1.9592    1.1275 C   0  0  0  0  0  0  0  0  0  0  0  0
   10.0707   -2.1201    2.3373 O   0  0  0  0  0  0  0  0  0  0  0  0
   11.2821   -2.5964    0.3225 C   0  0  0  0  0  0  0  0  0  0  0  0
   13.3492    3.8366   -2.2494 H   0  0  0  0  0  0  0  0  0  0  0  0
   12.1277    2.5816   -2.4438 H   0  0  0  0  0  0  0  0  0  0  0  0
   11.6942    4.1800   -1.7623 H   0  0  0  0  0  0  0  0  0  0  0  0
   13.8206    3.0394   -0.1334 H   0  0  0  0  0  0  0  0  0  0  0  0
   11.8484    2.3594    2.6096 H   0  0  0  0  0  0  0  0  0  0  0  0
   13.4789    2.0933    1.9798 H   0  0  0  0  0  0  0  0  0  0  0  0
   12.3014    0.7740    1.9254 H   0  0  0  0  0  0  0  0  0  0  0  0
    8.2787    1.3110   -0.1826 H   0  0  0  0  0  0  0  0  0  0  0  0
    8.3828   -0.7032    2.0557 H   0  0  0  0  0  0  0  0  0  0  0  0
    7.3901   -2.0545   -1.4013 H   0  0  0  0  0  0  0  0  0  0  0  0
    5.4794   -1.1919   -2.7888 H   0  0  0  0  0  0  0  0  0  0  0  0
    5.0154   -2.2537   -1.4748 H   0  0  0  0  0  0  0  0  0  0  0  0
    3.8039   -1.2939    2.1029 H   0  0  0  0  0  0  0  0  0  0  0  0
    2.9400   -2.9790    0.4522 H   0  0  0  0  0  0  0  0  0  0  0  0
    1.7803   -1.9157    1.1688 H   0  0  0  0  0  0  0  0  0  0  0  0
    2.3761   -2.4974   -1.6012 H   0  0  0  0  0  0  0  0  0  0  0  0
    2.4815    1.3250   -0.2833 H   0  0  0  0  0  0  0  0  0  0  0  0
    2.3476    1.7788   -1.9675 H   0  0  0  0  0  0  0  0  0  0  0  0
    0.0929    1.0087   -2.0835 H   0  0  0  0  0  0  0  0  0  0  0  0
    0.3246    1.9219   -0.6136 H   0  0  0  0  0  0  0  0  0  0  0  0
    0.8187   -0.1730    0.5786 H   0  0  0  0  0  0  0  0  0  0  0  0
    0.1431   -3.6888   -0.7710 H   0  0  0  0  0  0  0  0  0  0  0  0
    0.1498   -2.8467    0.7538 H   0  0  0  0  0  0  0  0  0  0  0  0
   -2.0669   -3.5167    0.3312 H   0  0  0  0  0  0  0  0  0  0  0  0
   -2.0886   -2.8668   -1.2711 H   0  0  0  0  0  0  0  0  0  0  0  0
   -2.5924   -1.6246    1.3205 H   0  0  0  0  0  0  0  0  0  0  0  0
   -1.8522   -0.0111    2.6285 H   0  0  0  0  0  0  0  0  0  0  0  0
   -0.4590   -1.0593    2.3281 H   0  0  0  0  0  0  0  0  0  0  0  0
   -0.2760    0.7021    2.2818 H   0  0  0  0  0  0  0  0  0  0  0  0
   -1.4012    2.0584    0.5716 H   0  0  0  0  0  0  0  0  0  0  0  0
   -2.9275    1.2572    0.8091 H   0  0  0  0  0  0  0  0  0  0  0  0
   -2.6578    2.2919   -1.2480 H   0  0  0  0  0  0  0  0  0  0  0  0
   -4.4618   -2.2870    0.8055 H   0  0  0  0  0  0  0  0  0  0  0  0
   -4.7451    0.1601    1.4576 H   0  0  0  0  0  0  0  0  0  0  0  0
   -6.8293    1.1585    0.2057 H   0  0  0  0  0  0  0  0  0  0  0  0
   -6.0942    0.8317   -2.3620 H   0  0  0  0  0  0  0  0  0  0  0  0
   -6.6472   -1.8529   -2.4429 H   0  0  0  0  0  0  0  0  0  0  0  0
   -3.3644   -1.8123   -4.0358 H   0  0  0  0  0  0  0  0  0  0  0  0
   -7.7930    1.3463   -3.1283 H   0  0  0  0  0  0  0  0  0  0  0  0
   -9.5370   -1.0762   -2.8851 H   0  0  0  0  0  0  0  0  0  0  0  0
  -11.2517    0.1338   -4.4570 H   0  0  0  0  0  0  0  0  0  0  0  0
  -11.6174    2.5558   -3.8765 H   0  0  0  0  0  0  0  0  0  0  0  0
   -8.9669    3.3158   -3.0671 H   0  0  0  0  0  0  0  0  0  0  0  0
  -10.0601    4.1605   -1.0052 H   0  0  0  0  0  0  0  0  0  0  0  0
  -11.5255    3.2598   -1.3995 H   0  0  0  0  0  0  0  0  0  0  0  0
  -11.6674    5.3801   -2.1379 H   0  0  0  0  0  0  0  0  0  0  0  0
  -10.0765    3.2368   -5.2601 H   0  0  0  0  0  0  0  0  0  0  0  0
  -11.2499    0.6605   -1.6475 H   0  0  0  0  0  0  0  0  0  0  0  0
   -8.7686    0.5014   -5.1314 H   0  0  0  0  0  0  0  0  0  0  0  0
   -5.0768    2.3280    0.3432 H   0  0  0  0  0  0  0  0  0  0  0  0
   -5.5833   -0.3073    3.2514 H   0  0  0  0  0  0  0  0  0  0  0  0
   -7.7891    1.0093    2.3906 H   0  0  0  0  0  0  0  0  0  0  0  0
   -9.8189    0.2012    3.5816 H   0  0  0  0  0  0  0  0  0  0  0  0
   -9.5546   -2.3948    4.2078 H   0  0  0  0  0  0  0  0  0  0  0  0
   -6.9584   -1.3794    5.4250 H   0  0  0  0  0  0  0  0  0  0  0  0
   -6.3673   -3.7428    5.4124 H   0  0  0  0  0  0  0  0  0  0  0  0
   -7.8110   -4.1616    4.4870 H   0  0  0  0  0  0  0  0  0  0  0  0
   -7.9495   -4.4591    6.7920 H   0  0  0  0  0  0  0  0  0  0  0  0
   -9.6068   -1.7477    6.2648 H   0  0  0  0  0  0  0  0  0  0  0  0
   -8.8247   -0.8510    1.3868 H   0  0  0  0  0  0  0  0  0  0  0  0
   -8.2264    1.2502    4.8440 H   0  0  0  0  0  0  0  0  0  0  0  0
    0.1012   -2.5350   -2.9394 H   0  0  0  0  0  0  0  0  0  0  0  0
   -1.1502   -1.3630   -2.4895 H   0  0  0  0  0  0  0  0  0  0  0  0
    0.3555   -0.8136   -3.1201 H   0  0  0  0  0  0  0  0  0  0  0  0
    3.7484   -0.1804   -3.6913 H   0  0  0  0  0  0  0  0  0  0  0  0
    2.0432    0.1381   -3.6675 H   0  0  0  0  0  0  0  0  0  0  0  0
    2.6526   -1.5234   -3.5256 H   0  0  0  0  0  0  0  0  0  0  0  0
    5.7197   -0.3669    2.1063 H   0  0  0  0  0  0  0  0  0  0  0  0
    5.3624    1.8802    1.9640 H   0  0  0  0  0  0  0  0  0  0  0  0
    5.9328    2.0457    0.3490 H   0  0  0  0  0  0  0  0  0  0  0  0
    7.3295    0.4676    3.4991 H   0  0  0  0  0  0  0  0  0  0  0  0
    7.0515    2.1617    3.8678 H   0  0  0  0  0  0  0  0  0  0  0  0
    8.6993    1.5840    3.5889 H   0  0  0  0  0  0  0  0  0  0  0  0
    6.9528    3.8989    2.1557 H   0  0  0  0  0  0  0  0  0  0  0  0
    8.6952    3.6504    2.0570 H   0  0  0  0  0  0  0  0  0  0  0  0
    7.7197    3.6739    0.5824 H   0  0  0  0  0  0  0  0  0  0  0  0
    4.4080    2.0530   -1.1376 H   0  0  0  0  0  0  0  0  0  0  0  0
    4.7010    1.3810   -2.7374 H   0  0  0  0  0  0  0  0  0  0  0  0
    5.9622    1.4050   -1.5597 H   0  0  0  0  0  0  0  0  0  0  0  0
    7.6376   -0.3431   -2.7198 H   0  0  0  0  0  0  0  0  0  0  0  0
    5.7199   -2.8132    0.7803 H   0  0  0  0  0  0  0  0  0  0  0  0
    6.7437   -2.4002    2.1540 H   0  0  0  0  0  0  0  0  0  0  0  0
    7.6216   -4.1340    1.2308 H   0  0  0  0  0  0  0  0  0  0  0  0
   11.4836   -3.5933    0.7244 H   0  0  0  0  0  0  0  0  0  0  0  0
   12.1848   -1.9826    0.3762 H   0  0  0  0  0  0  0  0  0  0  0  0
   10.9735   -2.7147   -0.7203 H   0  0  0  0  0  0  0  0  0  0  0  0
  1  2  1  0
  2  3  2  0
  3  4  1  0
  3  5  1  0
  5  6  2  0
  5  7  1  0
  7  8  1  0
  8  9  1  0
  9 10  1  0
 10 11  1  0
 11 12  1  0
 12 13  1  0
 13 14  1  0
 14 15  2  0
 15 16  1  0
 16 17  1  0
 17 18  1  0
 18 19  1  0
 19 20  1  0
 20 21  1  0
 21 22  1  0
 22 23  1  0
 23 24  1  0
 24 25  1  0
 25 26  1  0
 26 27  1  1
 26 28  1  0
 28 29  1  0
 25 30  1  0
 30 31  1  0
 31 32  1  0
 32 33  1  0
 33 34  1  0
 34 35  1  0
 35 36  1  0
 35 37  1  0
 37 38  2  0
 37 39  1  0
 34 40  1  0
 40 41  1  0
 41 42  1  0
 42 43  1  0
 43 44  1  0
 44 45  1  0
 45 46  1  0
 45 47  1  0
 47 48  1  0
 44 49  1  0
 43 50  1  0
 42 51  1  0
 33 52  1  0
 32 53  1  0
 53 54  1  0
 54 55  1  0
 55 56  1  0
 56 57  1  0
 57 58  1  0
 58 59  1  0
 58 60  1  0
 60 61  1  0
 57 62  1  0
 56 63  1  0
 55 64  1  0
 22 65  1  6
 18 66  1  6
 14 67  1  0
 67 68  1  0
 68 69  1  0
 69 70  1  0
 69 71  1  0
 13 72  1  1
 11 73  1  0
 10 74  1  1
 74 75  1  0
  9 76  1  0
 76 77  1  0
 77 78  2  0
 77 79  1  0
 69  8  1  0
 67 10  1  0
 18 13  1  0
 22 17  1  0
 26 21  1  0
 36 31  1  0
 46 41  1  0
 59 54  1  0
  1 80  1  0
  1 81  1  0
  1 82  1  0
  2 83  1  0
  4 84  1  0
  4 85  1  0
  4 86  1  0
  8 87  1  6
  9 88  1  1
 11 89  1  1
 12 90  1  0
 12 91  1  0
 15 92  1  0
 16 93  1  0
 16 94  1  0
 17 95  1  0
 19 96  1  0
 19 97  1  0
 20 98  1  0
 20 99  1  0
 21100  1  0
 23101  1  0
 23102  1  0
 24103  1  0
 24104  1  0
 25105  1  1
 27106  1  0
 27107  1  0
 27108  1  0
 28109  1  0
 28110  1  0
 29111  1  0
 31112  1  1
 32113  1  1
 33114  1  1
 34115  1  6
 35116  1  6
 39117  1  0
 41118  1  6
 42119  1  1
 43120  1  6
 44121  1  6
 45122  1  6
 47123  1  0
 47124  1  0
 48125  1  0
 49126  1  0
 50127  1  0
 51128  1  0
 52129  1  0
 54130  1  1
 55131  1  6
 56132  1  1
 57133  1  6
 58134  1  1
 60135  1  0
 60136  1  0
 61137  1  0
 62138  1  0
 63139  1  0
 64140  1  0
 65141  1  0
 65142  1  0
 65143  1  0
 66144  1  0
 66145  1  0
 66146  1  0
 67147  1  0
 68148  1  0
 68149  1  0
 70150  1  0
 70151  1  0
 70152  1  0
 71153  1  0
 71154  1  0
 71155  1  0
 72156  1  0
 72157  1  0
 72158  1  0
 73159  1  0
 74160  1  0
 74161  1  0
 75162  1  0
 79163  1  0
 79164  1  0
 79165  1  0
M  END
$$$$
