
     RDKit          3D

 44 45  0  0  0  0  0  0  0  0999 V2000
    2.2822   -2.5395   -0.1560 C   0  0  0  0  0  0  0  0  0  0  0  0
    1.5050   -1.3455   -0.3842 N   0  0  0  0  0  0  0  0  0  0  0  0
    0.1458   -1.2212   -0.2227 C   0  0  0  0  0  0  0  0  0  0  0  0
   -0.1192    0.0974   -0.5588 C   0  0  0  0  0  0  0  0  0  0  0  0
   -1.4409    0.5775   -0.4983 C   0  0  0  0  0  0  0  0  0  0  0  0
   -2.5109   -0.2504   -0.1031 C   0  0  0  0  0  0  0  0  0  0  0  0
   -2.1747   -1.5800    0.2210 C   0  0  0  0  0  0  0  0  0  0  0  0
   -0.8649   -2.0951    0.1721 C   0  0  0  0  0  0  0  0  0  0  0  0
   -3.8229    0.2194   -0.0398 N   0  0  0  0  0  0  0  0  0  0  0  0
   -4.9659   -0.6765    0.2250 C   0  0  0  0  0  0  0  0  0  0  0  0
   -5.3701   -1.4438   -1.0346 C   0  0  0  0  0  0  0  0  0  0  0  0
   -6.7686   -2.4988   -0.7100 Cl  0  0  0  0  0  0  0  0  0  0  0  0
   -4.1462    1.6515   -0.2020 C   0  0  0  0  0  0  0  0  0  0  0  0
   -3.8221    2.4828    1.0444 C   0  0  0  0  0  0  0  0  0  0  0  0
   -4.9502    2.1482    2.3874 Cl  0  0  0  0  0  0  0  0  0  0  0  0
    1.0290    0.7547   -0.9207 N   0  0  0  0  0  0  0  0  0  0  0  0
    1.9994   -0.1307   -0.8111 C   0  0  0  0  0  0  0  0  0  0  0  0
    3.4378    0.1408   -1.1100 C   0  0  0  0  0  0  0  0  0  0  0  0
    4.1719    0.6724    0.1203 C   0  0  0  0  0  0  0  0  0  0  0  0
    5.6185    1.0299   -0.2124 C   0  0  0  0  0  0  0  0  0  0  0  0
    6.3648    1.5085    1.0029 C   0  0  0  0  0  0  0  0  0  0  0  0
    6.0223    1.4145    2.1682 O   0  0  0  0  0  0  0  0  0  0  0  0
    7.5490    2.0631    0.6786 O   0  0  0  0  0  0  0  0  0  0  0  0
    1.6757   -3.2951    0.3468 H   0  0  0  0  0  0  0  0  0  0  0  0
    3.1367   -2.2902    0.4776 H   0  0  0  0  0  0  0  0  0  0  0  0
    2.6192   -2.9193   -1.1234 H   0  0  0  0  0  0  0  0  0  0  0  0
   -1.5775    1.6125   -0.7790 H   0  0  0  0  0  0  0  0  0  0  0  0
   -2.9389   -2.2824    0.5426 H   0  0  0  0  0  0  0  0  0  0  0  0
   -0.6695   -3.1277    0.4383 H   0  0  0  0  0  0  0  0  0  0  0  0
   -4.7531   -1.3525    1.0610 H   0  0  0  0  0  0  0  0  0  0  0  0
   -5.8288   -0.0874    0.5613 H   0  0  0  0  0  0  0  0  0  0  0  0
   -5.6525   -0.7546   -1.8366 H   0  0  0  0  0  0  0  0  0  0  0  0
   -4.5598   -2.0778   -1.4045 H   0  0  0  0  0  0  0  0  0  0  0  0
   -3.6215    2.0621   -1.0723 H   0  0  0  0  0  0  0  0  0  0  0  0
   -5.2089    1.7720   -0.4514 H   0  0  0  0  0  0  0  0  0  0  0  0
   -3.9174    3.5480    0.8134 H   0  0  0  0  0  0  0  0  0  0  0  0
   -2.8094    2.3012    1.4140 H   0  0  0  0  0  0  0  0  0  0  0  0
    3.4891    0.8823   -1.9169 H   0  0  0  0  0  0  0  0  0  0  0  0
    3.9318   -0.7615   -1.4876 H   0  0  0  0  0  0  0  0  0  0  0  0
    4.1473   -0.0755    0.9229 H   0  0  0  0  0  0  0  0  0  0  0  0
    3.6571    1.5588    0.5137 H   0  0  0  0  0  0  0  0  0  0  0  0
    6.1447    0.1552   -0.6100 H   0  0  0  0  0  0  0  0  0  0  0  0
    5.6335    1.8267   -0.9647 H   0  0  0  0  0  0  0  0  0  0  0  0
    7.9329    2.3264    1.5417 H   0  0  0  0  0  0  0  0  0  0  0  0
  1  2  1  0
  2  3  1  0
  3  4  2  0
  4  5  1  0
  5  6  2  0
  6  7  1  0
  7  8  2  0
  6  9  1  0
  9 10  1  0
 10 11  1  0
 11 12  1  0
  9 13  1  0
 13 14  1  0
 14 15  1  0
  4 16  1  0
 16 17  2  0
 17 18  1  0
 18 19  1  0
 19 20  1  0
 20 21  1  0
 21 22  2  0
 21 23  1  0
 17  2  1  0
  8  3  1  0
  1 24  1  0
  1 25  1  0
  1 26  1  0
  5 27  1  0
  7 28  1  0
  8 29  1  0
 10 30  1  0
 10 31  1  0
 11 32  1  0
 11 33  1  0
 13 34  1  0
 13 35  1  0
 14 36  1  0
 14 37  1  0
 18 38  1  0
 18 39  1  0
 19 40  1  0
 19 41  1  0
 20 42  1  0
 20 43  1  0
 23 44  1  0
M  END
$$$$
