
     RDKit          3D

120124  0  0  0  0  0  0  0  0999 V2000
    6.6179   -2.4114    1.2206 C   0  0  0  0  0  0  0  0  0  0  0  0
    7.0184   -1.4724    0.0554 C   0  0  2  0  0  0  0  0  0  0  0  0
    8.5666   -1.3934    0.0787 C   0  0  0  0  0  0  0  0  0  0  0  0
    9.1650   -0.2875   -0.7877 C   0  0  0  0  0  0  0  0  0  0  0  0
    8.5860    1.0967   -0.4542 C   0  0  2  0  0  0  0  0  0  0  0  0
    7.0502    1.0346   -0.5955 C   0  0  0  0  0  0  0  0  0  0  0  0
    6.3910   -0.0697    0.2642 C   0  0  1  0  0  0  0  0  0  0  0  0
    4.8722   -0.0422    0.0653 C   0  0  0  0  0  0  0  0  0  0  0  0
    4.1565    0.7905    0.8458 C   0  0  0  0  0  0  0  0  0  0  0  0
    2.6886    0.9750    0.7226 C   0  0  0  0  0  0  0  0  0  0  0  0
    2.2007    1.8907    1.3743 O   0  0  0  0  0  0  0  0  0  0  0  0
    1.9035    0.0899   -0.2637 C   0  0  2  0  0  0  0  0  0  0  0  0
    0.3463   -0.0411    0.0283 C   0  0  1  0  0  0  0  0  0  0  0  0
   -0.3325    1.3566   -0.0921 C   0  0  0  0  0  0  0  0  0  0  0  0
   -1.8571    1.3211   -0.0418 C   0  0  0  0  0  0  0  0  0  0  0  0
   -2.4917    0.3932   -1.0835 C   0  0  1  0  0  0  0  0  0  0  0  0
   -1.8667   -1.0412   -1.0760 C   0  0  0  0  0  0  0  0  0  0  0  0
   -0.2957   -0.9304   -1.1067 C   0  0  2  0  0  0  0  0  0  0  0  0
    0.4324   -2.2803   -1.2635 C   0  0  0  0  0  0  0  0  0  0  0  0
    1.9218   -2.0940   -1.5669 C   0  0  0  0  0  0  0  0  0  0  0  0
    2.6878   -1.2569   -0.5133 C   0  0  1  0  0  0  0  0  0  0  0  0
    4.1976   -0.9033   -1.0146 C   0  0  2  0  0  0  0  0  0  0  0  0
    5.0014   -2.1968   -1.3533 C   0  0  0  0  0  0  0  0  0  0  0  0
    6.5261   -2.0600   -1.2835 C   0  0  0  0  0  0  0  0  0  0  0  0
    4.1925   -0.0478   -2.3204 C   0  0  0  0  0  0  0  0  0  0  0  0
    2.7543   -2.1220    0.7896 C   0  0  0  0  0  0  0  0  0  0  0  0
   -2.4088   -1.8770    0.1091 C   0  0  0  0  0  0  0  0  0  0  0  0
   -2.3749   -1.7556   -2.3581 C   0  0  0  0  0  0  0  0  0  0  0  0
   -3.8869    0.2588   -0.7983 O   0  0  0  0  0  0  0  0  0  0  0  0
   -4.6890    1.3836   -1.1525 C   0  0  2  0  0  0  0  0  0  0  0  0
   -5.7584    1.5922   -0.0573 C   0  0  1  0  0  0  0  0  0  0  0  0
   -6.8856    2.4863   -0.5712 C   0  0  2  0  0  0  0  0  0  0  0  0
   -6.5112    3.3070   -1.8166 C   0  0  1  0  0  0  0  0  0  0  0  0
   -5.8891    2.4374   -2.9270 C   0  0  2  0  0  0  0  0  0  0  0  0
   -5.3039    1.2025   -2.4269 O   0  0  0  0  0  0  0  0  0  0  0  0
   -4.8135    3.2749   -3.6846 C   0  0  0  0  0  0  0  0  0  0  0  0
   -4.9606    3.3286   -4.9427 O   0  0  0  0  0  0  0  0  0  0  0  0
   -3.9118    3.7999   -2.9648 O   0  0  0  0  0  1  0  0  0  0  0  0
   -7.7338    3.9519   -2.2592 O   0  0  0  0  0  0  0  0  0  0  0  0
   -7.2806    3.4092    0.4865 O   0  0  0  0  0  0  0  0  0  0  0  0
   -6.3687    0.3409    0.3411 O   0  0  0  0  0  0  0  0  0  0  0  0
   -6.2345    0.0345    1.7288 C   0  0  1  0  0  0  0  0  0  0  0  0
   -7.2066    0.8465    2.6212 C   0  0  1  0  0  0  0  0  0  0  0  0
   -7.3845    0.1076    3.9415 C   0  0  2  0  0  0  0  0  0  0  0  0
   -8.0249   -1.2632    3.7172 C   0  0  1  0  0  0  0  0  0  0  0  0
   -7.5123   -1.9406    2.4388 C   0  0  2  0  0  0  0  0  0  0  0  0
   -6.2775   -1.3820    1.9374 O   0  0  0  0  0  0  0  0  0  0  0  0
   -8.6569   -1.9954    1.3941 C   0  0  0  0  0  0  0  0  0  0  0  0
   -9.2659   -0.9106    1.1694 O   0  0  0  0  0  0  0  0  0  0  0  0
   -8.9351   -3.1600    0.9734 O   0  0  0  0  0  1  0  0  0  0  0  0
   -7.7190   -2.0943    4.8679 O   0  0  0  0  0  0  0  0  0  0  0  0
   -8.1852    0.9072    4.8358 O   0  0  0  0  0  0  0  0  0  0  0  0
   -6.7027    2.1748    2.9203 O   0  0  0  0  0  0  0  0  0  0  0  0
    0.1055   -0.5741    1.4631 C   0  0  0  0  0  0  0  0  0  0  0  0
    9.1399    2.1445   -1.4350 C   0  0  0  0  0  0  0  0  0  0  0  0
    8.9730    1.5684    0.9470 C   0  0  0  0  0  0  0  0  0  0  0  0
    8.2534    2.1387    1.7484 O   0  0  0  0  0  0  0  0  0  0  0  0
   10.2642    1.3457    1.2567 O   0  0  0  0  0  0  0  0  0  0  0  0
    0.0000    0.0000    0.0000 K   0  0  0  0  0 15  0  0  0  0  0  0
    0.0000    0.0000    0.0000 K   0  0  0  0  0 15  0  0  0  0  0  0
    5.5352   -2.5077    1.3384 H   0  0  0  0  0  0  0  0  0  0  0  0
    7.0248   -3.4218    1.0707 H   0  0  0  0  0  0  0  0  0  0  0  0
    7.0055   -2.0400    2.1789 H   0  0  0  0  0  0  0  0  0  0  0  0
    8.9951   -2.3564   -0.2287 H   0  0  0  0  0  0  0  0  0  0  0  0
    8.9083   -1.2376    1.1111 H   0  0  0  0  0  0  0  0  0  0  0  0
   10.2550   -0.2966   -0.6644 H   0  0  0  0  0  0  0  0  0  0  0  0
    8.9845   -0.5223   -1.8442 H   0  0  0  0  0  0  0  0  0  0  0  0
    6.6168    2.0087   -0.3241 H   0  0  0  0  0  0  0  0  0  0  0  0
    6.8122    0.8872   -1.6518 H   0  0  0  0  0  0  0  0  0  0  0  0
    6.5825    0.1893    1.3141 H   0  0  0  0  0  0  0  0  0  0  0  0
    4.6247    1.4220    1.5950 H   0  0  0  0  0  0  0  0  0  0  0  0
    1.9464    0.6556   -1.2058 H   0  0  0  0  0  0  0  0  0  0  0  0
   -0.0291    1.8327   -1.0348 H   0  0  0  0  0  0  0  0  0  0  0  0
   -0.0042    2.0246    0.7110 H   0  0  0  0  0  0  0  0  0  0  0  0
   -2.2154    1.0571    0.9590 H   0  0  0  0  0  0  0  0  0  0  0  0
   -2.2140    2.3499   -0.1871 H   0  0  0  0  0  0  0  0  0  0  0  0
   -2.3656    0.8361   -2.0817 H   0  0  0  0  0  0  0  0  0  0  0  0
   -0.0801   -0.3925   -2.0451 H   0  0  0  0  0  0  0  0  0  0  0  0
    0.0153   -2.8389   -2.1085 H   0  0  0  0  0  0  0  0  0  0  0  0
    0.2913   -2.9156   -0.3854 H   0  0  0  0  0  0  0  0  0  0  0  0
    2.3785   -3.0876   -1.6673 H   0  0  0  0  0  0  0  0  0  0  0  0
    1.9918   -1.6307   -2.5567 H   0  0  0  0  0  0  0  0  0  0  0  0
    4.7382   -2.5383   -2.3629 H   0  0  0  0  0  0  0  0  0  0  0  0
    4.7253   -3.0310   -0.7059 H   0  0  0  0  0  0  0  0  0  0  0  0
    6.8789   -1.4596   -2.1319 H   0  0  0  0  0  0  0  0  0  0  0  0
    6.9656   -3.0595   -1.4301 H   0  0  0  0  0  0  0  0  0  0  0  0
    5.2000    0.0801   -2.7251 H   0  0  0  0  0  0  0  0  0  0  0  0
    3.6231   -0.5216   -3.1229 H   0  0  0  0  0  0  0  0  0  0  0  0
    3.7917    0.9579   -2.1732 H   0  0  0  0  0  0  0  0  0  0  0  0
    3.3173   -3.0486    0.6461 H   0  0  0  0  0  0  0  0  0  0  0  0
    3.2006   -1.5905    1.6355 H   0  0  0  0  0  0  0  0  0  0  0  0
    1.7755   -2.4701    1.1167 H   0  0  0  0  0  0  0  0  0  0  0  0
   -2.4016   -1.3218    1.0489 H   0  0  0  0  0  0  0  0  0  0  0  0
   -1.8475   -2.8030    0.2483 H   0  0  0  0  0  0  0  0  0  0  0  0
   -3.4540   -2.1667   -0.0558 H   0  0  0  0  0  0  0  0  0  0  0  0
   -2.1079   -2.8173   -2.3704 H   0  0  0  0  0  0  0  0  0  0  0  0
   -3.4683   -1.7087   -2.4339 H   0  0  0  0  0  0  0  0  0  0  0  0
   -1.9680   -1.2883   -3.2599 H   0  0  0  0  0  0  0  0  0  0  0  0
   -4.0663    2.2807   -1.1770 H   0  0  0  0  0  0  0  0  0  0  0  0
   -5.2454    2.0408    0.8025 H   0  0  0  0  0  0  0  0  0  0  0  0
   -7.7911    1.8941   -0.7713 H   0  0  0  0  0  0  0  0  0  0  0  0
   -5.8539    4.1317   -1.5149 H   0  0  0  0  0  0  0  0  0  0  0  0
   -6.6591    2.1349   -3.6473 H   0  0  0  0  0  0  0  0  0  0  0  0
   -8.2767    3.2526   -2.6706 H   0  0  0  0  0  0  0  0  0  0  0  0
   -7.7674    4.1073    0.0074 H   0  0  0  0  0  0  0  0  0  0  0  0
   -5.2075    0.2983    2.0154 H   0  0  0  0  0  0  0  0  0  0  0  0
   -8.1730    1.0110    2.1364 H   0  0  0  0  0  0  0  0  0  0  0  0
   -6.4157   -0.0044    4.4437 H   0  0  0  0  0  0  0  0  0  0  0  0
   -9.1164   -1.1727    3.7248 H   0  0  0  0  0  0  0  0  0  0  0  0
   -7.2579   -2.9835    2.6694 H   0  0  0  0  0  0  0  0  0  0  0  0
   -8.1516   -2.9449    4.6755 H   0  0  0  0  0  0  0  0  0  0  0  0
   -7.7307    1.7760    4.8370 H   0  0  0  0  0  0  0  0  0  0  0  0
   -6.9202    2.7070    2.1169 H   0  0  0  0  0  0  0  0  0  0  0  0
    0.9295   -0.3318    2.1407 H   0  0  0  0  0  0  0  0  0  0  0  0
   -0.0363   -1.6562    1.4947 H   0  0  0  0  0  0  0  0  0  0  0  0
   -0.7783   -0.1391    1.9365 H   0  0  0  0  0  0  0  0  0  0  0  0
    8.7244    3.1343   -1.2236 H   0  0  0  0  0  0  0  0  0  0  0  0
    8.8950    1.8904   -2.4713 H   0  0  0  0  0  0  0  0  0  0  0  0
   10.2289    2.2255   -1.3565 H   0  0  0  0  0  0  0  0  0  0  0  0
   10.3541    1.7339    2.1532 H   0  0  0  0  0  0  0  0  0  0  0  0
  2  1  1  1
  2  3  1  0
  3  4  1  0
  4  5  1  0
  5  6  1  0
  6  7  1  0
  7  8  1  0
  8  9  2  0
  9 10  1  0
 10 11  2  0
 10 12  1  0
 12 13  1  0
 13 14  1  0
 14 15  1  0
 15 16  1  0
 16 17  1  0
 17 18  1  0
 18 19  1  0
 19 20  1  0
 20 21  1  0
 21 22  1  0
 22 23  1  0
 23 24  1  0
 22 25  1  6
 21 26  1  1
 17 27  1  0
 17 28  1  0
 16 29  1  0
 29 30  1  0
 30 31  1  0
 31 32  1  0
 32 33  1  0
 33 34  1  0
 34 35  1  0
 34 36  1  0
 36 37  2  0
 36 38  1  0
 33 39  1  0
 32 40  1  0
 31 41  1  0
 41 42  1  0
 42 43  1  0
 43 44  1  0
 44 45  1  0
 45 46  1  0
 46 47  1  0
 46 48  1  0
 48 49  2  0
 48 50  1  0
 45 51  1  0
 44 52  1  0
 43 53  1  0
 13 54  1  1
  5 55  1  6
  5 56  1  0
 56 57  2  0
 56 58  1  0
  7  2  1  0
 24  2  1  0
 22  8  1  0
 21 12  1  0
 18 13  1  0
 35 30  1  0
 47 42  1  0
  1 61  1  0
  1 62  1  0
  1 63  1  0
  3 64  1  0
  3 65  1  0
  4 66  1  0
  4 67  1  0
  6 68  1  0
  6 69  1  0
  7 70  1  1
  9 71  1  0
 12 72  1  6
 14 73  1  0
 14 74  1  0
 15 75  1  0
 15 76  1  0
 16 77  1  6
 18 78  1  6
 19 79  1  0
 19 80  1  0
 20 81  1  0
 20 82  1  0
 23 83  1  0
 23 84  1  0
 24 85  1  0
 24 86  1  0
 25 87  1  0
 25 88  1  0
 25 89  1  0
 26 90  1  0
 26 91  1  0
 26 92  1  0
 27 93  1  0
 27 94  1  0
 27 95  1  0
 28 96  1  0
 28 97  1  0
 28 98  1  0
 30 99  1  6
 31100  1  1
 32101  1  6
 33102  1  1
 34103  1  6
 39104  1  0
 40105  1  0
 42106  1  1
 43107  1  6
 44108  1  1
 45109  1  6
 46110  1  1
 51111  1  0
 52112  1  0
 53113  1  0
 54114  1  0
 54115  1  0
 54116  1  0
 55117  1  0
 55118  1  0
 55119  1  0
 58120  1  0
M  CHG  4  38  -1  50  -1  59   1  60   1
M  END
$$$$
