
     RDKit          3D

  9  8  0  0  0  0  0  0  0  0999 V2000
   -1.3007    0.1230   -0.0173 C   0  0  0  0  0  0  0  0  0  0  0  0
    0.1729    0.0350    0.2232 C   0  0  0  0  0  0  0  0  0  0  0  0
    0.7462    0.3697    1.2512 O   0  0  0  0  0  0  0  0  0  0  0  0
    0.8276   -0.4009   -0.8972 O   0  0  0  0  0  0  0  0  0  0  0  0
    2.2497   -0.5871   -0.5496 O   0  0  0  0  0  0  0  0  0  0  0  0
   -1.8262    0.0387    0.9378 H   0  0  0  0  0  0  0  0  0  0  0  0
   -1.6318   -0.7052   -0.6544 H   0  0  0  0  0  0  0  0  0  0  0  0
   -1.5378    1.0789   -0.4913 H   0  0  0  0  0  0  0  0  0  0  0  0
    2.3000    0.0480    0.1976 H   0  0  0  0  0  0  0  0  0  0  0  0
  1  2  1  0
  2  3  2  0
  2  4  1  0
  4  5  1  0
  1  6  1  0
  1  7  1  0
  1  8  1  0
  5  9  1  0
M  END
$$$$
