
     RDKit          3D

  8  7  0  0  0  0  0  0  0  0999 V2000
   -0.8948    0.0791    0.1969 C   0  0  0  0  0  0  0  0  0  0  0  0
    0.5454   -0.2702   -0.1328 C   0  0  0  0  0  0  0  0  0  0  0  0
    0.9752   -1.2607   -0.7042 O   0  0  0  0  0  0  0  0  0  0  0  0
    1.4231    0.6783    0.2798 O   0  0  0  0  0  0  0  0  0  0  0  0
   -1.4579    1.3318   -0.9277 Cl  0  0  0  0  0  0  0  0  0  0  0  0
   -1.9297   -1.3599    0.0910 Cl  0  0  0  0  0  0  0  0  0  0  0  0
   -0.9566    0.4563    1.2215 H   0  0  0  0  0  0  0  0  0  0  0  0
    2.2954    0.3454   -0.0245 H   0  0  0  0  0  0  0  0  0  0  0  0
  1  2  1  0
  2  3  2  0
  2  4  1  0
  1  5  1  0
  1  6  1  0
  1  7  1  0
  4  8  1  0
M  END
$$$$
