
     RDKit          3D

 15  6  0  0  0  0  0  0  0  0999 V2000
    0.5736    0.0000    0.0000 C   0  0  0  0  0  3  0  0  0  0  0  0
   -0.5736    0.0000    0.0000 N   0  0  0  0  0  0  0  0  0  0  0  0
    0.5793    0.0000    0.0000 C   0  0  0  0  0  3  0  0  0  0  0  0
   -0.5793    0.0000    0.0000 N   0  0  0  0  0  0  0  0  0  0  0  0
    0.5761    0.0000    0.0000 C   0  0  0  0  0  3  0  0  0  0  0  0
   -0.5761    0.0000    0.0000 N   0  0  0  0  0  0  0  0  0  0  0  0
    0.5781    0.0000    0.0000 C   0  0  0  0  0  3  0  0  0  0  0  0
   -0.5781    0.0000    0.0000 N   0  0  0  0  0  0  0  0  0  0  0  0
    0.5801    0.0000    0.0000 C   0  0  0  0  0  3  0  0  0  0  0  0
   -0.5801    0.0000    0.0000 N   0  0  0  0  0  0  0  0  0  0  0  0
    0.5552    0.0000    0.0000 N   0  0  0  0  0  0  0  0  0  0  0  0
   -0.5552    0.0000    0.0000 O   0  0  0  0  0  3  0  0  0  0  0  0
    0.0000    0.0000    0.0000 Na  0  0  0  0  0 15  0  0  0  0  0  0
    0.0000    0.0000    0.0000 Na  0  0  0  0  0 15  0  0  0  0  0  0
    0.0000    0.0000    0.0000 Fe  0  0  0  0  0 15  0  0  0  0  0  0
  1  2  3  0
  3  4  3  0
  5  6  3  0
  7  8  3  0
  9 10  3  0
 11 12  3  0
M  CHG  8   1  -1   3  -1   5  -1   7  -1   9  -1  12   1  13   1  14   1
M  CHG  1  15   2
M  END
$$$$
