
     RDKit          3D

 32 31  0  0  0  0  0  0  0  0999 V2000
   -1.9132   -0.8357   -1.4736 C   0  0  0  0  0  0  0  0  0  0  0  0
   -2.1015    0.3664   -0.5256 C   0  0  0  0  0  0  0  0  0  0  0  0
   -3.4657    1.0188   -0.8717 C   0  0  0  0  0  0  0  0  0  0  0  0
   -2.1854   -0.1320    0.9305 C   0  0  0  0  0  0  0  0  0  0  0  0
   -1.0492   -0.9124    1.2728 O   0  0  0  0  0  0  0  0  0  0  0  0
   -0.9782    1.4266   -0.7083 C   0  0  2  0  0  0  0  0  0  0  0  0
    0.4586    1.0591   -0.2578 C   0  0  0  0  0  0  0  0  0  0  0  0
    0.9998    1.6759    0.6617 O   0  0  0  0  0  0  0  0  0  0  0  0
    1.1141    0.1085   -0.9961 N   0  0  0  0  0  0  0  0  0  0  0  0
    2.5001   -0.2410   -0.7432 C   0  0  0  0  0  0  0  0  0  0  0  0
    2.6925   -1.0473    0.5329 C   0  0  0  0  0  0  0  0  0  0  0  0
    4.1286   -1.4472    0.6535 C   0  0  0  0  0  0  0  0  0  0  0  0
    4.6775   -2.3497    0.0403 O   0  0  0  0  0  0  0  0  0  0  0  0
    4.8316   -0.6660    1.4969 O   0  0  0  0  0  0  0  0  0  0  0  0
   -1.3565    2.6300   -0.0108 O   0  0  0  0  0  0  0  0  0  0  0  0
   -1.0420   -1.4460   -1.2140 H   0  0  0  0  0  0  0  0  0  0  0  0
   -1.7951   -0.5043   -2.5112 H   0  0  0  0  0  0  0  0  0  0  0  0
   -2.7794   -1.5081   -1.4448 H   0  0  0  0  0  0  0  0  0  0  0  0
   -4.2794    0.2842   -0.8500 H   0  0  0  0  0  0  0  0  0  0  0  0
   -3.7292    1.8114   -0.1621 H   0  0  0  0  0  0  0  0  0  0  0  0
   -3.4455    1.4570   -1.8753 H   0  0  0  0  0  0  0  0  0  0  0  0
   -3.0737   -0.7583    1.0707 H   0  0  0  0  0  0  0  0  0  0  0  0
   -2.2562    0.6916    1.6449 H   0  0  0  0  0  0  0  0  0  0  0  0
   -1.2400   -1.3480    2.1267 H   0  0  0  0  0  0  0  0  0  0  0  0
   -0.9125    1.7095   -1.7656 H   0  0  0  0  0  0  0  0  0  0  0  0
    0.6525   -0.3017   -1.7966 H   0  0  0  0  0  0  0  0  0  0  0  0
    3.0812    0.6916   -0.7022 H   0  0  0  0  0  0  0  0  0  0  0  0
    2.8453   -0.8056   -1.6195 H   0  0  0  0  0  0  0  0  0  0  0  0
    2.0868   -1.9592    0.5222 H   0  0  0  0  0  0  0  0  0  0  0  0
    2.3835   -0.4886    1.4251 H   0  0  0  0  0  0  0  0  0  0  0  0
    5.7311   -1.0487    1.4745 H   0  0  0  0  0  0  0  0  0  0  0  0
   -0.5805    2.8692    0.5406 H   0  0  0  0  0  0  0  0  0  0  0  0
  1  2  1  0
  2  3  1  0
  2  4  1  0
  4  5  1  0
  2  6  1  0
  6  7  1  0
  7  8  2  0
  7  9  1  0
  9 10  1  0
 10 11  1  0
 11 12  1  0
 12 13  2  0
 12 14  1  0
  6 15  1  0
  1 16  1  0
  1 17  1  0
  1 18  1  0
  3 19  1  0
  3 20  1  0
  3 21  1  0
  4 22  1  0
  4 23  1  0
  5 24  1  0
  6 25  1  6
  9 26  1  0
 10 27  1  0
 10 28  1  0
 11 29  1  0
 11 30  1  0
 14 31  1  0
 15 32  1  0
M  END
$$$$
