
     RDKit          3D

 39 41  0  0  0  0  0  0  0  0999 V2000
   -4.3117    2.0483    0.0503 C   0  0  0  0  0  0  0  0  0  0  0  0
   -3.2535    1.5770   -0.9412 C   0  0  0  0  0  0  0  0  0  0  0  0
   -3.0627    0.0619   -0.8826 C   0  0  0  0  0  0  0  0  0  0  0  0
   -2.7609   -0.4498    0.5336 C   0  0  0  0  0  0  0  0  0  0  0  0
   -3.7936    0.0744    1.5438 C   0  0  0  0  0  0  0  0  0  0  0  0
   -3.9998    1.5875    1.4699 C   0  0  0  0  0  0  0  0  0  0  0  0
   -1.4232   -0.0486    0.9576 N   0  0  0  0  0  0  0  0  0  0  0  0
   -0.3434   -0.7502    0.5447 C   0  0  0  0  0  0  0  0  0  0  0  0
   -0.3728   -1.9437    0.0004 N   0  0  0  0  0  0  0  0  0  0  0  0
    0.8968   -2.3519   -0.2925 C   0  0  0  0  0  0  0  0  0  0  0  0
    1.9141   -1.4695   -0.0043 C   0  0  0  0  0  0  0  0  0  0  0  0
    1.2315   -0.0726    0.7192 S   0  0  0  0  0  0  0  0  0  0  0  0
    3.3383   -1.6592   -0.1705 C   0  0  0  0  0  0  0  0  0  0  0  0
    3.8745   -2.7673   -0.1186 O   0  0  0  0  0  0  0  0  0  0  0  0
    4.2301   -0.5077   -0.4328 C   0  0  0  0  0  0  0  0  0  0  0  0
    5.4767   -0.4718    0.1781 C   0  0  0  0  0  0  0  0  0  0  0  0
    6.3724    0.5308    0.0014 N   0  0  0  0  0  0  0  0  0  0  0  0
    6.0150    1.5247   -0.8410 C   0  0  0  0  0  0  0  0  0  0  0  0
    4.8050    1.5630   -1.5171 C   0  0  0  0  0  0  0  0  0  0  0  0
    3.8981    0.5247   -1.3136 C   0  0  0  0  0  0  0  0  0  0  0  0
    1.0465   -3.5681   -0.8403 N   0  0  0  0  0  0  0  0  0  0  0  0
   -5.2923    1.6598   -0.2513 H   0  0  0  0  0  0  0  0  0  0  0  0
   -4.3808    3.1417    0.0244 H   0  0  0  0  0  0  0  0  0  0  0  0
   -3.5476    1.8687   -1.9559 H   0  0  0  0  0  0  0  0  0  0  0  0
   -2.3023    2.0806   -0.7316 H   0  0  0  0  0  0  0  0  0  0  0  0
   -2.2675   -0.2292   -1.5791 H   0  0  0  0  0  0  0  0  0  0  0  0
   -3.9821   -0.4195   -1.2403 H   0  0  0  0  0  0  0  0  0  0  0  0
   -2.8331   -1.5453    0.5372 H   0  0  0  0  0  0  0  0  0  0  0  0
   -4.7555   -0.4169    1.3479 H   0  0  0  0  0  0  0  0  0  0  0  0
   -3.5011   -0.2019    2.5642 H   0  0  0  0  0  0  0  0  0  0  0  0
   -3.1041    2.1044    1.8342 H   0  0  0  0  0  0  0  0  0  0  0  0
   -4.8202    1.8765    2.1369 H   0  0  0  0  0  0  0  0  0  0  0  0
   -1.2884    0.9369    1.1488 H   0  0  0  0  0  0  0  0  0  0  0  0
    5.8025   -1.2638    0.8482 H   0  0  0  0  0  0  0  0  0  0  0  0
    6.7536    2.3119   -0.9680 H   0  0  0  0  0  0  0  0  0  0  0  0
    4.5777    2.3802   -2.1935 H   0  0  0  0  0  0  0  0  0  0  0  0
    2.9558    0.5244   -1.8548 H   0  0  0  0  0  0  0  0  0  0  0  0
    1.9470   -4.0369   -0.7457 H   0  0  0  0  0  0  0  0  0  0  0  0
    0.2609   -4.2036   -0.7449 H   0  0  0  0  0  0  0  0  0  0  0  0
  1  2  1  0
  2  3  1  0
  3  4  1  0
  4  5  1  0
  5  6  1  0
  4  7  1  0
  7  8  1  0
  8  9  2  0
  9 10  1  0
 10 11  2  0
 11 12  1  0
 11 13  1  0
 13 14  2  0
 13 15  1  0
 15 16  2  0
 16 17  1  0
 17 18  2  0
 18 19  1  0
 19 20  2  0
 10 21  1  0
  6  1  1  0
 12  8  1  0
 20 15  1  0
  1 22  1  0
  1 23  1  0
  2 24  1  0
  2 25  1  0
  3 26  1  0
  3 27  1  0
  4 28  1  0
  5 29  1  0
  5 30  1  0
  6 31  1  0
  6 32  1  0
  7 33  1  0
 16 34  1  0
 18 35  1  0
 19 36  1  0
 20 37  1  0
 21 38  1  0
 21 39  1  0
M  END
$$$$
