
     RDKit          3D

 45 50  0  0  0  0  0  0  0  0999 V2000
    2.2951   -0.9817    0.5852 C   0  0  0  0  0  0  0  0  0  0  0  0
    3.5188   -0.8863   -0.3282 C   0  0  1  0  0  0  0  0  0  0  0  0
    4.0203    0.5642   -0.5095 C   0  0  1  0  0  0  0  0  0  0  0  0
    3.2614    1.5869    0.3620 C   0  0  2  0  0  0  0  0  0  0  0  0
    1.7644    1.3837    0.2519 C   0  0  0  0  0  0  0  0  0  0  0  0
    1.2548    0.0618    0.2121 C   0  0  0  0  0  0  0  0  0  0  0  0
   -0.1471   -0.2078    0.0136 C   0  0  0  0  0  0  0  0  0  0  0  0
   -1.0165    0.9066    0.1582 C   0  0  0  0  0  0  0  0  0  0  0  0
   -0.4923    2.2267    0.2821 C   0  0  0  0  0  0  0  0  0  0  0  0
    0.8805    2.4520    0.2747 C   0  0  0  0  0  0  0  0  0  0  0  0
   -1.3422    3.3251    0.4216 C   0  0  0  0  0  0  0  0  0  0  0  0
   -2.7170    3.1503    0.4804 C   0  0  0  0  0  0  0  0  0  0  0  0
   -3.2679    1.8738    0.3840 C   0  0  0  0  0  0  0  0  0  0  0  0
   -2.4265    0.7361    0.1996 C   0  0  0  0  0  0  0  0  0  0  0  0
   -3.0021   -0.5505    0.0737 C   0  0  0  0  0  0  0  0  0  0  0  0
   -4.4158   -0.6397    0.1875 C   0  0  0  0  0  0  0  0  0  0  0  0
   -5.2278    0.4749    0.3860 C   0  0  0  0  0  0  0  0  0  0  0  0
   -4.6537    1.7300    0.4731 C   0  0  0  0  0  0  0  0  0  0  0  0
   -2.1574   -1.6697   -0.2079 C   0  0  0  0  0  0  0  0  0  0  0  0
   -2.6805   -2.9738   -0.4370 C   0  0  0  0  0  0  0  0  0  0  0  0
   -1.8920   -4.0488   -0.8391 C   0  0  0  0  0  0  0  0  0  0  0  0
   -0.5499   -3.8440   -1.0619 C   0  0  0  0  0  0  0  0  0  0  0  0
   -0.0048   -2.5836   -0.8175 C   0  0  0  0  0  0  0  0  0  0  0  0
   -0.7498   -1.4848   -0.3106 C   0  0  0  0  0  0  0  0  0  0  0  0
    3.6531    2.9020   -0.0431 O   0  0  0  0  0  0  0  0  0  0  0  0
    5.4271    0.6574   -0.2133 O   0  0  0  0  0  0  0  0  0  0  0  0
    4.5735   -1.7209    0.1677 O   0  0  0  0  0  0  0  0  0  0  0  0
    1.9283   -2.0058    0.6476 H   0  0  0  0  0  0  0  0  0  0  0  0
    2.6015   -0.7875    1.6246 H   0  0  0  0  0  0  0  0  0  0  0  0
    3.2521   -1.2801   -1.3164 H   0  0  0  0  0  0  0  0  0  0  0  0
    3.9108    0.8482   -1.5644 H   0  0  0  0  0  0  0  0  0  0  0  0
    3.5575    1.4880    1.4139 H   0  0  0  0  0  0  0  0  0  0  0  0
    1.2734    3.4654    0.3437 H   0  0  0  0  0  0  0  0  0  0  0  0
   -0.9403    4.3328    0.5067 H   0  0  0  0  0  0  0  0  0  0  0  0
   -3.3507    4.0248    0.6089 H   0  0  0  0  0  0  0  0  0  0  0  0
   -4.9280   -1.5942    0.1134 H   0  0  0  0  0  0  0  0  0  0  0  0
   -6.3055    0.3589    0.4614 H   0  0  0  0  0  0  0  0  0  0  0  0
   -5.2974    2.5946    0.6178 H   0  0  0  0  0  0  0  0  0  0  0  0
   -3.7414   -3.1805   -0.3321 H   0  0  0  0  0  0  0  0  0  0  0  0
   -2.3401   -5.0222   -1.0166 H   0  0  0  0  0  0  0  0  0  0  0  0
    0.0771   -4.6485   -1.4359 H   0  0  0  0  0  0  0  0  0  0  0  0
    1.0370   -2.4621   -1.0967 H   0  0  0  0  0  0  0  0  0  0  0  0
    4.6286    2.8716   -0.0868 H   0  0  0  0  0  0  0  0  0  0  0  0
    5.8342   -0.1300   -0.6282 H   0  0  0  0  0  0  0  0  0  0  0  0
    4.8970   -1.3135    0.9938 H   0  0  0  0  0  0  0  0  0  0  0  0
  1  2  1  0
  2  3  1  0
  3  4  1  0
  4  5  1  0
  5  6  2  0
  6  7  1  0
  7  8  2  0
  8  9  1  0
  9 10  2  0
  9 11  1  0
 11 12  2  0
 12 13  1  0
 13 14  2  0
 14 15  1  0
 15 16  2  0
 16 17  1  0
 17 18  2  0
 15 19  1  0
 19 20  2  0
 20 21  1  0
 21 22  2  0
 22 23  1  0
 23 24  2  0
  4 25  1  0
  3 26  1  0
  2 27  1  0
  6  1  1  0
 10  5  1  0
 24  7  1  0
 14  8  1  0
 18 13  1  0
 24 19  1  0
  1 28  1  0
  1 29  1  0
  2 30  1  6
  3 31  1  6
  4 32  1  1
 10 33  1  0
 11 34  1  0
 12 35  1  0
 16 36  1  0
 17 37  1  0
 18 38  1  0
 20 39  1  0
 21 40  1  0
 22 41  1  0
 23 42  1  0
 25 43  1  0
 26 44  1  0
 27 45  1  0
M  END
$$$$
