
     RDKit          3D

 73 73  0  0  0  0  0  0  0  0999 V2000
   -7.6425    2.7737    2.0730 C   0  0  0  0  0  0  0  0  0  0  0  0
   -8.2443    1.9760    0.9262 C   0  0  0  0  0  0  0  0  0  0  0  0
   -7.8950    0.4922    1.0388 C   0  0  0  0  0  0  0  0  0  0  0  0
   -8.5682   -0.3756   -0.0276 C   0  0  0  0  0  0  0  0  0  0  0  0
   -8.2216   -0.0358   -1.4804 C   0  0  0  0  0  0  0  0  0  0  0  0
   -6.7304   -0.0530   -1.8319 C   0  0  0  0  0  0  0  0  0  0  0  0
   -6.0605   -1.4031   -1.5640 C   0  0  0  0  0  0  0  0  0  0  0  0
   -4.6468   -1.5039   -2.1446 C   0  0  0  0  0  0  0  0  0  0  0  0
   -3.6402   -0.4601   -1.6477 C   0  0  0  0  0  0  0  0  0  0  0  0
   -3.4644   -0.3607   -0.1278 C   0  0  0  0  0  0  0  0  0  0  0  0
   -2.9557   -1.6278    0.5644 C   0  0  0  0  0  0  0  0  0  0  0  0
   -1.4407   -1.6881    0.7994 C   0  0  0  0  0  0  0  0  0  0  0  0
   -0.5864   -1.8360   -0.4641 C   0  0  0  0  0  0  0  0  0  0  0  0
    0.0040   -0.5185   -0.9743 C   0  0  0  0  0  0  0  0  0  0  0  0
    0.8307    0.1082    0.0036 O   0  0  0  0  0  0  0  0  0  0  0  0
    2.1083   -0.2555    0.0306 C   0  0  0  0  0  0  0  0  0  0  0  0
    2.9052   -1.1792   -0.6090 C   0  0  0  0  0  0  0  0  0  0  0  0
    4.2079   -1.0155   -0.0779 C   0  0  0  0  0  0  0  0  0  0  0  0
    4.1356    0.0037    0.8558 C   0  0  0  0  0  0  0  0  0  0  0  0
    2.8463    0.4600    0.9196 O   0  0  0  0  0  0  0  0  0  0  0  0
    5.1264    0.6219    1.7043 C   0  0  0  0  0  0  0  0  0  0  0  0
    4.9433    1.5483    2.4847 O   0  0  0  0  0  0  0  0  0  0  0  0
    6.3354    0.0173    1.5021 O   0  0  0  0  0  0  0  0  0  0  0  0
    7.4132    0.5866    2.2559 C   0  0  0  0  0  0  0  0  0  0  0  0
    8.6951   -0.1903    1.9577 C   0  0  0  0  0  0  0  0  0  0  0  0
    9.1151   -0.1830    0.4803 C   0  0  0  0  0  0  0  0  0  0  0  0
   10.1383    0.9059    0.1017 C   0  0  0  0  0  0  0  0  0  0  0  0
   10.5702    0.7189   -1.3565 C   0  0  0  0  0  0  0  0  0  0  0  0
    9.6107    2.3255    0.3014 C   0  0  0  0  0  0  0  0  0  0  0  0
   -6.5518    2.6830    2.0842 H   0  0  0  0  0  0  0  0  0  0  0  0
   -7.8952    3.8337    1.9713 H   0  0  0  0  0  0  0  0  0  0  0  0
   -8.0264    2.4249    3.0366 H   0  0  0  0  0  0  0  0  0  0  0  0
   -9.3330    2.1046    0.9312 H   0  0  0  0  0  0  0  0  0  0  0  0
   -7.8713    2.3842   -0.0189 H   0  0  0  0  0  0  0  0  0  0  0  0
   -6.8079    0.3630    0.9994 H   0  0  0  0  0  0  0  0  0  0  0  0
   -8.2119    0.1243    2.0230 H   0  0  0  0  0  0  0  0  0  0  0  0
   -8.3178   -1.4252    0.1678 H   0  0  0  0  0  0  0  0  0  0  0  0
   -9.6565   -0.3007    0.0919 H   0  0  0  0  0  0  0  0  0  0  0  0
   -8.7447   -0.7483   -2.1313 H   0  0  0  0  0  0  0  0  0  0  0  0
   -8.6285    0.9515   -1.7315 H   0  0  0  0  0  0  0  0  0  0  0  0
   -6.2147    0.7428   -1.2834 H   0  0  0  0  0  0  0  0  0  0  0  0
   -6.6318    0.1920   -2.8971 H   0  0  0  0  0  0  0  0  0  0  0  0
   -6.0300   -1.6070   -0.4884 H   0  0  0  0  0  0  0  0  0  0  0  0
   -6.6673   -2.1999   -2.0125 H   0  0  0  0  0  0  0  0  0  0  0  0
   -4.7097   -1.4208   -3.2374 H   0  0  0  0  0  0  0  0  0  0  0  0
   -4.2596   -2.5103   -1.9476 H   0  0  0  0  0  0  0  0  0  0  0  0
   -3.9406    0.5269   -2.0211 H   0  0  0  0  0  0  0  0  0  0  0  0
   -2.6772   -0.6729   -2.1219 H   0  0  0  0  0  0  0  0  0  0  0  0
   -4.4315   -0.0934    0.3138 H   0  0  0  0  0  0  0  0  0  0  0  0
   -2.7998    0.4804    0.1027 H   0  0  0  0  0  0  0  0  0  0  0  0
   -3.2875   -2.5330    0.0470 H   0  0  0  0  0  0  0  0  0  0  0  0
   -3.4252   -1.6663    1.5567 H   0  0  0  0  0  0  0  0  0  0  0  0
   -1.1219   -0.8276    1.3988 H   0  0  0  0  0  0  0  0  0  0  0  0
   -1.2573   -2.5718    1.4251 H   0  0  0  0  0  0  0  0  0  0  0  0
   -1.1562   -2.3261   -1.2610 H   0  0  0  0  0  0  0  0  0  0  0  0
    0.2452   -2.5079   -0.2186 H   0  0  0  0  0  0  0  0  0  0  0  0
    0.5445   -0.6726   -1.9167 H   0  0  0  0  0  0  0  0  0  0  0  0
   -0.7965    0.1910   -1.1994 H   0  0  0  0  0  0  0  0  0  0  0  0
    2.5932   -1.8867   -1.3627 H   0  0  0  0  0  0  0  0  0  0  0  0
    5.0999   -1.5671   -0.3423 H   0  0  0  0  0  0  0  0  0  0  0  0
    7.1883    0.5037    3.3256 H   0  0  0  0  0  0  0  0  0  0  0  0
    7.5209    1.6429    1.9963 H   0  0  0  0  0  0  0  0  0  0  0  0
    8.5136   -1.2365    2.2375 H   0  0  0  0  0  0  0  0  0  0  0  0
    9.5105    0.1731    2.5928 H   0  0  0  0  0  0  0  0  0  0  0  0
    9.5805   -1.1563    0.2718 H   0  0  0  0  0  0  0  0  0  0  0  0
    8.2386   -0.1219   -0.1758 H   0  0  0  0  0  0  0  0  0  0  0  0
   11.0295    0.7823    0.7307 H   0  0  0  0  0  0  0  0  0  0  0  0
   11.3456    1.4426   -1.6287 H   0  0  0  0  0  0  0  0  0  0  0  0
    9.7255    0.8533   -2.0410 H   0  0  0  0  0  0  0  0  0  0  0  0
   10.9806   -0.2833   -1.5176 H   0  0  0  0  0  0  0  0  0  0  0  0
    9.4757    2.5491    1.3636 H   0  0  0  0  0  0  0  0  0  0  0  0
    8.6530    2.4695   -0.2109 H   0  0  0  0  0  0  0  0  0  0  0  0
   10.3177    3.0645   -0.0921 H   0  0  0  0  0  0  0  0  0  0  0  0
  1  2  1  0
  2  3  1  0
  3  4  1  0
  4  5  1  0
  5  6  1  0
  6  7  1  0
  7  8  1  0
  8  9  1  0
  9 10  1  0
 10 11  1  0
 11 12  1  0
 12 13  1  0
 13 14  1  0
 14 15  1  0
 15 16  1  0
 16 17  2  0
 17 18  1  0
 18 19  2  0
 19 20  1  0
 19 21  1  0
 21 22  2  0
 21 23  1  0
 23 24  1  0
 24 25  1  0
 25 26  1  0
 26 27  1  0
 27 28  1  0
 27 29  1  0
 20 16  1  0
  1 30  1  0
  1 31  1  0
  1 32  1  0
  2 33  1  0
  2 34  1  0
  3 35  1  0
  3 36  1  0
  4 37  1  0
  4 38  1  0
  5 39  1  0
  5 40  1  0
  6 41  1  0
  6 42  1  0
  7 43  1  0
  7 44  1  0
  8 45  1  0
  8 46  1  0
  9 47  1  0
  9 48  1  0
 10 49  1  0
 10 50  1  0
 11 51  1  0
 11 52  1  0
 12 53  1  0
 12 54  1  0
 13 55  1  0
 13 56  1  0
 14 57  1  0
 14 58  1  0
 17 59  1  0
 18 60  1  0
 24 61  1  0
 24 62  1  0
 25 63  1  0
 25 64  1  0
 26 65  1  0
 26 66  1  0
 27 67  1  0
 28 68  1  0
 28 69  1  0
 28 70  1  0
 29 71  1  0
 29 72  1  0
 29 73  1  0
M  END
$$$$
