
     RDKit          3D

 26 25  0  0  0  0  0  0  0  0999 V2000
    1.2080    0.3379   -0.0578 C   0  0  0  0  0  0  0  0  0  0  0  0
    2.5681   -0.3016    0.2662 C   0  0  1  0  0  0  0  0  0  0  0  0
    3.7123    0.5328   -0.3374 C   0  0  0  0  0  0  0  0  0  0  0  0
    3.9058    0.7777   -1.5142 O   0  0  0  0  0  0  0  0  0  0  0  0
    4.5610    1.0340    0.5901 O   0  0  0  0  0  0  0  0  0  0  0  0
    2.7339   -0.3979    1.7497 N   0  0  0  0  0  0  0  0  0  0  0  0
    0.6583   -0.0828   -1.7564 S   0  0  0  0  0  0  0  0  0  0  0  0
   -1.0333    1.0674   -1.9792 S   0  0  0  0  0  0  0  0  0  0  0  0
   -2.4099   -0.0908   -1.6352 C   0  0  0  0  0  0  0  0  0  0  0  0
   -2.5303   -0.6171   -0.1999 C   0  0  1  0  0  0  0  0  0  0  0  0
   -3.0922    0.4486    0.7589 C   0  0  0  0  0  0  0  0  0  0  0  0
   -4.1542    0.4124    1.3578 O   0  0  0  0  0  0  0  0  0  0  0  0
   -2.2462    1.4732    0.9808 O   0  0  0  0  0  0  0  0  0  0  0  0
   -3.4391   -1.8002   -0.2026 N   0  0  0  0  0  0  0  0  0  0  0  0
    1.2640    1.4301    0.0381 H   0  0  0  0  0  0  0  0  0  0  0  0
    0.4484   -0.0335    0.6397 H   0  0  0  0  0  0  0  0  0  0  0  0
    2.6484   -1.3231   -0.1250 H   0  0  0  0  0  0  0  0  0  0  0  0
    5.2153    1.5287    0.0525 H   0  0  0  0  0  0  0  0  0  0  0  0
    2.9813    0.5403    2.0855 H   0  0  0  0  0  0  0  0  0  0  0  0
    3.6012   -0.9146    1.9220 H   0  0  0  0  0  0  0  0  0  0  0  0
   -2.2902   -0.9189   -2.3436 H   0  0  0  0  0  0  0  0  0  0  0  0
   -3.3304    0.4277   -1.9242 H   0  0  0  0  0  0  0  0  0  0  0  0
   -1.5814   -0.9678    0.2099 H   0  0  0  0  0  0  0  0  0  0  0  0
   -2.7367    2.0439    1.6110 H   0  0  0  0  0  0  0  0  0  0  0  0
   -2.9281   -2.6156   -0.5358 H   0  0  0  0  0  0  0  0  0  0  0  0
   -3.7339   -1.9905    0.7559 H   0  0  0  0  0  0  0  0  0  0  0  0
  1  2  1  0
  2  3  1  0
  3  4  2  0
  3  5  1  0
  2  6  1  0
  1  7  1  0
  7  8  1  0
  8  9  1  0
  9 10  1  0
 10 11  1  0
 11 12  2  0
 11 13  1  0
 10 14  1  0
  1 15  1  0
  1 16  1  0
  2 17  1  6
  5 18  1  0
  6 19  1  0
  6 20  1  0
  9 21  1  0
  9 22  1  0
 10 23  1  1
 13 24  1  0
 14 25  1  0
 14 26  1  0
M  END
$$$$
