
     RDKit          3D

 87 86  0  0  0  0  0  0  0  0999 V2000
  -12.0019   -0.5219   -0.8878 C   0  0  0  0  0  0  0  0  0  0  0  0
  -11.2788   -0.9299    0.3866 C   0  0  0  0  0  0  0  0  0  0  0  0
  -10.5356    0.2534    1.0078 C   0  0  0  0  0  0  0  0  0  0  0  0
   -9.8471   -0.0787    2.3357 C   0  0  0  0  0  0  0  0  0  0  0  0
   -8.8179   -1.2127    2.2899 C   0  0  0  0  0  0  0  0  0  0  0  0
   -7.7396   -1.0954    1.2077 C   0  0  0  0  0  0  0  0  0  0  0  0
   -6.8457    0.1389    1.3518 C   0  0  0  0  0  0  0  0  0  0  0  0
   -5.8640    0.3114    0.1846 C   0  0  0  0  0  0  0  0  0  0  0  0
   -4.8472   -0.8261    0.0705 C   0  0  0  0  0  0  0  0  0  0  0  0
   -3.9016   -0.6928   -1.1268 C   0  0  0  0  0  0  0  0  0  0  0  0
   -2.9866    0.5318   -1.0523 C   0  0  0  0  0  0  0  0  0  0  0  0
   -1.8841    0.5274   -2.1181 C   0  0  0  0  0  0  0  0  0  0  0  0
   -0.8912   -0.6394   -2.0402 C   0  0  0  0  0  0  0  0  0  0  0  0
   -0.2489   -0.8715   -0.6690 C   0  0  0  0  0  0  0  0  0  0  0  0
    0.5872    0.3182   -0.1936 C   0  0  0  0  0  0  0  0  0  0  0  0
    1.2222    0.0416    1.1713 C   0  0  0  0  0  0  0  0  0  0  0  0
    2.1138    1.1864    1.6686 C   0  0  0  0  0  0  0  0  0  0  0  0
    3.2281    1.6270    0.7103 C   0  0  0  0  0  0  0  0  0  0  0  0
    4.1965    0.5001    0.3453 C   0  0  0  0  0  0  0  0  0  0  0  0
    5.1441    0.8451   -0.8068 C   0  0  0  0  0  0  0  0  0  0  0  0
    6.0506    2.0422   -0.5236 C   0  0  0  0  0  0  0  0  0  0  0  0
    7.1056    2.2801   -1.6073 C   0  0  0  0  0  0  0  0  0  0  0  0
    8.0446    1.1198   -1.9543 C   0  0  0  0  0  0  0  0  0  0  0  0
    9.0808    0.7400   -0.8880 C   0  0  0  0  0  0  0  0  0  0  0  0
    8.5437   -0.1460    0.2386 C   0  0  0  0  0  0  0  0  0  0  0  0
    9.6425   -0.7157    1.1439 C   0  0  0  0  0  0  0  0  0  0  0  0
   10.6175   -1.7116    0.5003 C   0  0  0  0  0  0  0  0  0  0  0  0
    9.9630   -3.0050    0.0287 C   0  0  0  0  0  0  0  0  0  0  0  0
    9.2351   -2.7934   -1.1721 O   0  0  0  0  0  0  0  0  0  0  0  0
  -11.2985   -0.1309   -1.6314 H   0  0  0  0  0  0  0  0  0  0  0  0
  -12.5138   -1.3848   -1.3246 H   0  0  0  0  0  0  0  0  0  0  0  0
  -12.7524    0.2482   -0.6856 H   0  0  0  0  0  0  0  0  0  0  0  0
  -12.0068   -1.3300    1.1013 H   0  0  0  0  0  0  0  0  0  0  0  0
  -10.5806   -1.7391    0.1480 H   0  0  0  0  0  0  0  0  0  0  0  0
   -9.8001    0.6444    0.2935 H   0  0  0  0  0  0  0  0  0  0  0  0
  -11.2486    1.0683    1.1902 H   0  0  0  0  0  0  0  0  0  0  0  0
  -10.6137   -0.3397    3.0769 H   0  0  0  0  0  0  0  0  0  0  0  0
   -9.3653    0.8305    2.7135 H   0  0  0  0  0  0  0  0  0  0  0  0
   -9.3447   -2.1652    2.1502 H   0  0  0  0  0  0  0  0  0  0  0  0
   -8.3331   -1.2801    3.2722 H   0  0  0  0  0  0  0  0  0  0  0  0
   -7.1251   -2.0007    1.2658 H   0  0  0  0  0  0  0  0  0  0  0  0
   -8.2024   -1.1064    0.2147 H   0  0  0  0  0  0  0  0  0  0  0  0
   -6.2916    0.0837    2.2965 H   0  0  0  0  0  0  0  0  0  0  0  0
   -7.4646    1.0419    1.3991 H   0  0  0  0  0  0  0  0  0  0  0  0
   -6.4262    0.4032   -0.7536 H   0  0  0  0  0  0  0  0  0  0  0  0
   -5.3366    1.2609    0.3318 H   0  0  0  0  0  0  0  0  0  0  0  0
   -4.2603   -0.8880    0.9952 H   0  0  0  0  0  0  0  0  0  0  0  0
   -5.3686   -1.7828   -0.0364 H   0  0  0  0  0  0  0  0  0  0  0  0
   -4.4813   -0.6588   -2.0572 H   0  0  0  0  0  0  0  0  0  0  0  0
   -3.3011   -1.6078   -1.1641 H   0  0  0  0  0  0  0  0  0  0  0  0
   -3.5860    1.4398   -1.1922 H   0  0  0  0  0  0  0  0  0  0  0  0
   -2.5427    0.6083   -0.0532 H   0  0  0  0  0  0  0  0  0  0  0  0
   -2.3461    0.5251   -3.1136 H   0  0  0  0  0  0  0  0  0  0  0  0
   -1.3326    1.4717   -2.0461 H   0  0  0  0  0  0  0  0  0  0  0  0
   -0.0992   -0.4669   -2.7796 H   0  0  0  0  0  0  0  0  0  0  0  0
   -1.3918   -1.5626   -2.3505 H   0  0  0  0  0  0  0  0  0  0  0  0
   -1.0157   -1.1185    0.0750 H   0  0  0  0  0  0  0  0  0  0  0  0
    0.3998   -1.7534   -0.7429 H   0  0  0  0  0  0  0  0  0  0  0  0
    1.3605    0.5138   -0.9443 H   0  0  0  0  0  0  0  0  0  0  0  0
   -0.0320    1.2187   -0.1173 H   0  0  0  0  0  0  0  0  0  0  0  0
    0.4274   -0.1206    1.9098 H   0  0  0  0  0  0  0  0  0  0  0  0
    1.7962   -0.8915    1.1368 H   0  0  0  0  0  0  0  0  0  0  0  0
    2.5606    0.8868    2.6248 H   0  0  0  0  0  0  0  0  0  0  0  0
    1.4820    2.0571    1.8831 H   0  0  0  0  0  0  0  0  0  0  0  0
    2.7887    2.0565   -0.1967 H   0  0  0  0  0  0  0  0  0  0  0  0
    3.7859    2.4375    1.1942 H   0  0  0  0  0  0  0  0  0  0  0  0
    3.6429   -0.3947    0.0406 H   0  0  0  0  0  0  0  0  0  0  0  0
    4.7779    0.2187    1.2318 H   0  0  0  0  0  0  0  0  0  0  0  0
    4.5610    1.0353   -1.7160 H   0  0  0  0  0  0  0  0  0  0  0  0
    5.7452   -0.0486   -0.9999 H   0  0  0  0  0  0  0  0  0  0  0  0
    5.4351    2.9485   -0.4559 H   0  0  0  0  0  0  0  0  0  0  0  0
    6.5297    1.9413    0.4545 H   0  0  0  0  0  0  0  0  0  0  0  0
    7.7071    3.1522   -1.3203 H   0  0  0  0  0  0  0  0  0  0  0  0
    6.5797    2.5658   -2.5275 H   0  0  0  0  0  0  0  0  0  0  0  0
    7.4849    0.2342   -2.2731 H   0  0  0  0  0  0  0  0  0  0  0  0
    8.6082    1.4372   -2.8415 H   0  0  0  0  0  0  0  0  0  0  0  0
    9.8832    0.2065   -1.4092 H   0  0  0  0  0  0  0  0  0  0  0  0
    9.5358    1.6445   -0.4679 H   0  0  0  0  0  0  0  0  0  0  0  0
    7.9286   -0.9542   -0.1668 H   0  0  0  0  0  0  0  0  0  0  0  0
    7.8842    0.4436    0.8795 H   0  0  0  0  0  0  0  0  0  0  0  0
   10.2229    0.1169    1.5618 H   0  0  0  0  0  0  0  0  0  0  0  0
    9.1593   -1.2092    1.9976 H   0  0  0  0  0  0  0  0  0  0  0  0
   11.1458   -1.2349   -0.3299 H   0  0  0  0  0  0  0  0  0  0  0  0
   11.3694   -1.9674    1.2555 H   0  0  0  0  0  0  0  0  0  0  0  0
   10.7320   -3.7564   -0.1828 H   0  0  0  0  0  0  0  0  0  0  0  0
    9.2903   -3.4048    0.7981 H   0  0  0  0  0  0  0  0  0  0  0  0
    8.5520   -3.4922   -1.2133 H   0  0  0  0  0  0  0  0  0  0  0  0
  1  2  1  0
  2  3  1  0
  3  4  1  0
  4  5  1  0
  5  6  1  0
  6  7  1  0
  7  8  1  0
  8  9  1  0
  9 10  1  0
 10 11  1  0
 11 12  1  0
 12 13  1  0
 13 14  1  0
 14 15  1  0
 15 16  1  0
 16 17  1  0
 17 18  1  0
 18 19  1  0
 19 20  1  0
 20 21  1  0
 21 22  1  0
 22 23  1  0
 23 24  1  0
 24 25  1  0
 25 26  1  0
 26 27  1  0
 27 28  1  0
 28 29  1  0
  1 30  1  0
  1 31  1  0
  1 32  1  0
  2 33  1  0
  2 34  1  0
  3 35  1  0
  3 36  1  0
  4 37  1  0
  4 38  1  0
  5 39  1  0
  5 40  1  0
  6 41  1  0
  6 42  1  0
  7 43  1  0
  7 44  1  0
  8 45  1  0
  8 46  1  0
  9 47  1  0
  9 48  1  0
 10 49  1  0
 10 50  1  0
 11 51  1  0
 11 52  1  0
 12 53  1  0
 12 54  1  0
 13 55  1  0
 13 56  1  0
 14 57  1  0
 14 58  1  0
 15 59  1  0
 15 60  1  0
 16 61  1  0
 16 62  1  0
 17 63  1  0
 17 64  1  0
 18 65  1  0
 18 66  1  0
 19 67  1  0
 19 68  1  0
 20 69  1  0
 20 70  1  0
 21 71  1  0
 21 72  1  0
 22 73  1  0
 22 74  1  0
 23 75  1  0
 23 76  1  0
 24 77  1  0
 24 78  1  0
 25 79  1  0
 25 80  1  0
 26 81  1  0
 26 82  1  0
 27 83  1  0
 27 84  1  0
 28 85  1  0
 28 86  1  0
 29 87  1  0
M  END
$$$$
