
     RDKit          3D

 51 54  0  0  0  0  0  0  0  0999 V2000
   -1.2178    0.0749    1.7348 C   0  0  0  0  0  0  0  0  0  0  0  0
   -2.0359   -0.2500    0.4652 C   0  0  0  0  0  0  0  0  0  0  0  0
   -1.5947   -1.6248   -0.0799 C   0  0  0  0  0  0  0  0  0  0  0  0
   -0.7529   -1.5427   -1.3629 C   0  0  0  0  0  0  0  0  0  0  0  0
    0.2147   -0.3353   -1.4788 C   0  0  0  0  0  0  0  0  0  0  0  0
   -0.5118    1.0321   -1.2012 C   0  0  0  0  0  0  0  0  0  0  0  0
    0.3087    2.1206   -0.4998 C   0  0  0  0  0  0  0  0  0  0  0  0
    1.7876    2.0156   -0.8198 C   0  0  0  0  0  0  0  0  0  0  0  0
    2.2648    0.7062   -0.2646 C   0  0  0  0  0  0  0  0  0  0  0  0
    3.0968    0.6726    0.7946 C   0  0  0  0  0  0  0  0  0  0  0  0
    3.5693   -0.5734    1.4728 C   0  0  0  0  0  0  0  0  0  0  0  0
    2.9898   -0.5848    2.7746 O   0  0  0  0  0  0  0  0  0  0  0  0
    3.1910   -1.8582    0.7398 C   0  0  0  0  0  0  0  0  0  0  0  0
    1.8149   -1.7495    0.0698 C   0  0  0  0  0  0  0  0  0  0  0  0
    1.6929   -0.5493   -0.9175 C   0  0  0  0  0  0  0  0  0  0  0  0
    2.6039   -0.8617   -2.1430 C   0  0  0  0  0  0  0  0  0  0  0  0
   -1.9292    0.8186   -0.6409 C   0  0  0  0  0  0  0  0  0  0  0  0
   -2.7109    2.0138   -0.0944 C   0  0  0  0  0  0  0  0  0  0  0  0
   -3.8236    1.3896    0.7682 C   0  0  0  0  0  0  0  0  0  0  0  0
   -3.5397   -0.1236    0.8164 C   0  0  0  0  0  0  0  0  0  0  0  0
   -4.3521   -0.7655   -0.1643 O   0  0  0  0  0  0  0  0  0  0  0  0
   -1.4585    1.0549    2.1577 H   0  0  0  0  0  0  0  0  0  0  0  0
   -1.4161   -0.6669    2.5177 H   0  0  0  0  0  0  0  0  0  0  0  0
   -0.1440    0.0595    1.5434 H   0  0  0  0  0  0  0  0  0  0  0  0
   -2.4606   -2.2624   -0.2936 H   0  0  0  0  0  0  0  0  0  0  0  0
   -1.0403   -2.1790    0.6857 H   0  0  0  0  0  0  0  0  0  0  0  0
   -1.4602   -1.4723   -2.2029 H   0  0  0  0  0  0  0  0  0  0  0  0
   -0.2345   -2.4915   -1.5359 H   0  0  0  0  0  0  0  0  0  0  0  0
    0.3645   -0.2856   -2.5706 H   0  0  0  0  0  0  0  0  0  0  0  0
   -0.6840    1.4595   -2.2037 H   0  0  0  0  0  0  0  0  0  0  0  0
    0.1728    2.0866    0.5859 H   0  0  0  0  0  0  0  0  0  0  0  0
   -0.0547    3.1067   -0.8165 H   0  0  0  0  0  0  0  0  0  0  0  0
    1.9676    2.0716   -1.8991 H   0  0  0  0  0  0  0  0  0  0  0  0
    2.3185    2.8620   -0.3682 H   0  0  0  0  0  0  0  0  0  0  0  0
    3.4511    1.6016    1.2370 H   0  0  0  0  0  0  0  0  0  0  0  0
    4.6558   -0.5381    1.6033 H   0  0  0  0  0  0  0  0  0  0  0  0
    2.0332   -0.4548    2.6593 H   0  0  0  0  0  0  0  0  0  0  0  0
    3.9503   -2.0894   -0.0154 H   0  0  0  0  0  0  0  0  0  0  0  0
    3.1773   -2.7023    1.4402 H   0  0  0  0  0  0  0  0  0  0  0  0
    1.6206   -2.6971   -0.4454 H   0  0  0  0  0  0  0  0  0  0  0  0
    1.0710   -1.6615    0.8652 H   0  0  0  0  0  0  0  0  0  0  0  0
    2.3064   -1.8028   -2.6201 H   0  0  0  0  0  0  0  0  0  0  0  0
    3.6612   -0.9464   -1.8703 H   0  0  0  0  0  0  0  0  0  0  0  0
    2.5439   -0.0730   -2.9029 H   0  0  0  0  0  0  0  0  0  0  0  0
   -2.5238    0.4630   -1.4995 H   0  0  0  0  0  0  0  0  0  0  0  0
   -2.0979    2.6738    0.5268 H   0  0  0  0  0  0  0  0  0  0  0  0
   -3.1275    2.6225   -0.9038 H   0  0  0  0  0  0  0  0  0  0  0  0
   -3.7811    1.8202    1.7750 H   0  0  0  0  0  0  0  0  0  0  0  0
   -4.8102    1.6130    0.3484 H   0  0  0  0  0  0  0  0  0  0  0  0
   -3.7862   -0.5584    1.7906 H   0  0  0  0  0  0  0  0  0  0  0  0
   -5.2801   -0.6384    0.0974 H   0  0  0  0  0  0  0  0  0  0  0  0
  1  2  1  0
  2  3  1  0
  3  4  1  0
  4  5  1  0
  5  6  1  0
  6  7  1  0
  7  8  1  0
  8  9  1  0
  9 10  2  0
 10 11  1  0
 11 12  1  0
 11 13  1  0
 13 14  1  0
 14 15  1  0
 15 16  1  0
  6 17  1  0
 17 18  1  0
 18 19  1  0
 19 20  1  0
 20 21  1  0
 17  2  1  0
 20  2  1  0
 15  5  1  0
 15  9  1  0
  1 22  1  0
  1 23  1  0
  1 24  1  0
  3 25  1  0
  3 26  1  0
  4 27  1  0
  4 28  1  0
  5 29  1  0
  6 30  1  0
  7 31  1  0
  7 32  1  0
  8 33  1  0
  8 34  1  0
 10 35  1  0
 11 36  1  0
 12 37  1  0
 13 38  1  0
 13 39  1  0
 14 40  1  0
 14 41  1  0
 16 42  1  0
 16 43  1  0
 16 44  1  0
 17 45  1  0
 18 46  1  0
 18 47  1  0
 19 48  1  0
 19 49  1  0
 20 50  1  0
 21 51  1  0
M  END
$$$$
