
     RDKit          3D

 48 51  0  0  0  0  0  0  0  0999 V2000
   -0.5977    2.8460    0.6735 C   0  0  0  0  0  0  0  0  0  0  0  0
   -0.2126    2.0112   -0.4675 N   0  0  0  0  0  0  0  0  0  0  0  0
   -1.3423    1.1924   -0.9334 C   0  0  0  0  0  0  0  0  0  0  0  0
   -1.4558   -0.1839   -0.2515 C   0  0  2  0  0  0  0  0  0  0  0  0
   -0.1919   -1.0255   -0.4780 C   0  0  0  0  0  0  0  0  0  0  0  0
    1.0237   -0.1852   -0.9137 C   0  0  1  0  0  0  0  0  0  0  0  0
    1.0080    1.2142   -0.1640 C   0  0  1  0  0  0  0  0  0  0  0  0
    2.2835    2.0871   -0.4600 C   0  0  0  0  0  0  0  0  0  0  0  0
    3.5260    1.2781   -0.2985 C   0  0  0  0  0  0  0  0  0  0  0  0
    4.8372    1.5968   -0.0308 C   0  0  0  0  0  0  0  0  0  0  0  0
    5.5570    0.4188   -0.0113 N   0  0  0  0  0  0  0  0  0  0  0  0
    4.7296   -0.6529   -0.2675 C   0  0  0  0  0  0  0  0  0  0  0  0
    4.9624   -2.0245   -0.3672 C   0  0  0  0  0  0  0  0  0  0  0  0
    3.8502   -2.8297   -0.6626 C   0  0  0  0  0  0  0  0  0  0  0  0
    2.5670   -2.2891   -0.8414 C   0  0  0  0  0  0  0  0  0  0  0  0
    2.3425   -0.9117   -0.7156 C   0  0  0  0  0  0  0  0  0  0  0  0
    3.4662   -0.1227   -0.4417 C   0  0  0  0  0  0  0  0  0  0  0  0
   -2.6458   -0.8829   -0.7933 N   0  0  0  0  0  0  0  0  0  0  0  0
   -3.4497   -1.9784    0.1824 S   0  0  0  0  0  6  0  0  0  0  0  0
   -2.5174   -2.5055    1.1469 O   0  0  0  0  0  0  0  0  0  0  0  0
   -4.1701   -2.8357   -0.7277 O   0  0  0  0  0  0  0  0  0  0  0  0
   -4.5469   -0.9667    0.9467 N   0  0  0  0  0  0  0  0  0  0  0  0
   -4.0688   -0.0976    2.0271 C   0  0  0  0  0  0  0  0  0  0  0  0
   -5.5731   -0.3412    0.0980 C   0  0  0  0  0  0  0  0  0  0  0  0
    0.2202    3.5084    0.9740 H   0  0  0  0  0  0  0  0  0  0  0  0
   -0.8933    2.2485    1.5429 H   0  0  0  0  0  0  0  0  0  0  0  0
   -1.4362    3.4986    0.4052 H   0  0  0  0  0  0  0  0  0  0  0  0
   -2.2881    1.7417   -0.8323 H   0  0  0  0  0  0  0  0  0  0  0  0
   -1.2276    1.0468   -2.0165 H   0  0  0  0  0  0  0  0  0  0  0  0
   -1.5843   -0.0117    0.8223 H   0  0  0  0  0  0  0  0  0  0  0  0
   -0.3680   -1.8092   -1.2260 H   0  0  0  0  0  0  0  0  0  0  0  0
    0.0320   -1.5562    0.4568 H   0  0  0  0  0  0  0  0  0  0  0  0
    0.9436    0.0080   -1.9934 H   0  0  0  0  0  0  0  0  0  0  0  0
    1.0223    0.9730    0.9115 H   0  0  0  0  0  0  0  0  0  0  0  0
    2.3186    2.9514    0.2125 H   0  0  0  0  0  0  0  0  0  0  0  0
    2.2411    2.4669   -1.4887 H   0  0  0  0  0  0  0  0  0  0  0  0
    5.3283    2.5445    0.1436 H   0  0  0  0  0  0  0  0  0  0  0  0
    6.5505    0.3482    0.1580 H   0  0  0  0  0  0  0  0  0  0  0  0
    5.9490   -2.4536   -0.2338 H   0  0  0  0  0  0  0  0  0  0  0  0
    3.9886   -3.9051   -0.7591 H   0  0  0  0  0  0  0  0  0  0  0  0
    1.7475   -2.9628   -1.0792 H   0  0  0  0  0  0  0  0  0  0  0  0
   -2.4966   -1.3110   -1.7083 H   0  0  0  0  0  0  0  0  0  0  0  0
   -4.9054    0.1632    2.6833 H   0  0  0  0  0  0  0  0  0  0  0  0
   -3.3261   -0.6009    2.6517 H   0  0  0  0  0  0  0  0  0  0  0  0
   -3.6428    0.8277    1.6291 H   0  0  0  0  0  0  0  0  0  0  0  0
   -6.0556   -1.0789   -0.5489 H   0  0  0  0  0  0  0  0  0  0  0  0
   -6.3587    0.0975    0.7226 H   0  0  0  0  0  0  0  0  0  0  0  0
   -5.1400    0.4533   -0.5170 H   0  0  0  0  0  0  0  0  0  0  0  0
  1  2  1  0
  2  3  1  0
  3  4  1  0
  4  5  1  0
  5  6  1  0
  6  7  1  0
  7  8  1  0
  8  9  1  0
  9 10  2  0
 10 11  1  0
 11 12  1  0
 12 13  2  0
 13 14  1  0
 14 15  2  0
 15 16  1  0
 16 17  2  0
  4 18  1  0
 18 19  1  0
 19 20  2  0
 19 21  2  0
 19 22  1  0
 22 23  1  0
 22 24  1  0
  7  2  1  0
 16  6  1  0
 17  9  1  0
 17 12  1  0
  1 25  1  0
  1 26  1  0
  1 27  1  0
  3 28  1  0
  3 29  1  0
  4 30  1  1
  5 31  1  0
  5 32  1  0
  6 33  1  6
  7 34  1  1
  8 35  1  0
  8 36  1  0
 10 37  1  0
 11 38  1  0
 13 39  1  0
 14 40  1  0
 15 41  1  0
 18 42  1  0
 23 43  1  0
 23 44  1  0
 23 45  1  0
 24 46  1  0
 24 47  1  0
 24 48  1  0
M  END
$$$$
