
     RDKit          3D

 24 25  0  0  0  0  0  0  0  0999 V2000
   -0.7695   -1.7729   -1.1302 C   0  0  0  0  0  0  0  0  0  0  0  0
   -1.6476   -0.6185   -0.6539 C   0  0  2  0  0  0  0  0  0  0  0  0
   -0.7150    0.5809   -0.7463 C   0  0  2  0  0  0  0  0  0  0  0  0
    0.6924   -0.0044   -0.7991 C   0  0  2  0  0  0  0  0  0  0  0  0
    0.5727   -1.4305   -0.7802 O   0  0  0  0  0  0  0  0  0  0  0  0
    1.4130    0.5283    0.4429 C   0  0  2  0  0  0  0  0  0  0  0  0
    0.5736    1.7452    0.7757 C   0  0  0  0  0  0  0  0  0  0  0  0
   -0.7741    1.4640    0.3821 O   0  0  0  0  0  0  0  0  0  0  0  0
    2.7243    0.9497    0.1821 O   0  0  0  0  0  0  0  0  0  0  0  0
    3.6747   -0.0897    0.1760 N   0  0  0  0  0  4  0  0  0  0  0  0
    3.3027   -1.2195    0.4908 O   0  0  0  0  0  0  0  0  0  0  0  0
    4.7901    0.3195   -0.1289 O   0  0  0  0  0  1  0  0  0  0  0  0
   -2.0535   -0.9150    0.6828 O   0  0  0  0  0  0  0  0  0  0  0  0
   -3.2293   -0.2087    1.0821 N   0  0  0  0  0  4  0  0  0  0  0  0
   -3.6523    0.6443    0.2981 O   0  0  0  0  0  0  0  0  0  0  0  0
   -3.7107   -0.6350    2.1233 O   0  0  0  0  0  1  0  0  0  0  0  0
   -1.0349   -2.7370   -0.6744 H   0  0  0  0  0  0  0  0  0  0  0  0
   -0.7905   -1.8802   -2.2417 H   0  0  0  0  0  0  0  0  0  0  0  0
   -2.5062   -0.5664   -1.3318 H   0  0  0  0  0  0  0  0  0  0  0  0
   -0.9320    1.1589   -1.6555 H   0  0  0  0  0  0  0  0  0  0  0  0
    1.1848    0.2749   -1.7361 H   0  0  0  0  0  0  0  0  0  0  0  0
    1.3330   -0.1825    1.2802 H   0  0  0  0  0  0  0  0  0  0  0  0
    0.9394    2.6335    0.2444 H   0  0  0  0  0  0  0  0  0  0  0  0
    0.6147    1.9610    1.8433 H   0  0  0  0  0  0  0  0  0  0  0  0
  1  2  1  0
  2  3  1  0
  3  4  1  0
  4  5  1  0
  4  6  1  0
  6  7  1  0
  7  8  1  0
  6  9  1  0
  9 10  1  0
 10 11  2  0
 10 12  1  0
  2 13  1  0
 13 14  1  0
 14 15  2  0
 14 16  1  0
  5  1  1  0
  8  3  1  0
  1 17  1  0
  1 18  1  0
  2 19  1  6
  3 20  1  6
  4 21  1  6
  6 22  1  1
  7 23  1  0
  7 24  1  0
M  CHG  4  10   1  12  -1  14   1  16  -1
M  END
$$$$
