
     RDKit          3D

 57 63  0  0  0  0  0  0  0  0999 V2000
    2.3633   -1.7781   -0.9799 C   0  0  0  0  0  0  0  0  0  0  0  0
    2.4290   -0.2384   -0.8179 C   0  0  2  0  0  0  0  0  0  0  0  0
    2.9845    0.3751   -2.1353 C   0  0  0  0  0  0  0  0  0  0  0  0
    4.4171   -0.0458   -2.4476 C   0  0  0  0  0  0  0  0  0  0  0  0
    5.3276    0.1237   -1.2602 C   0  0  0  0  0  0  0  0  0  0  0  0
    6.5511    0.1422   -1.3780 O   0  0  0  0  0  0  0  0  0  0  0  0
    4.7303    0.2516    0.0868 C   0  0  0  0  0  0  0  0  0  0  0  0
    3.4113    0.1029    0.3231 C   0  0  0  0  0  0  0  0  0  0  0  0
    2.8731    0.3617    1.6756 C   0  0  2  0  0  0  0  0  0  0  0  0
    2.3687   -0.7733    2.5176 C   0  0  0  0  0  0  0  0  0  0  0  0
    1.3995    0.2412    1.9585 C   0  0  2  0  0  0  0  0  0  0  0  0
    0.4458   -0.1519    0.8557 C   0  0  2  0  0  0  0  0  0  0  0  0
    1.0074    0.3732   -0.5091 C   0  0  2  0  0  0  0  0  0  0  0  0
   -0.0085    0.2526   -1.6801 C   0  0  0  0  0  0  0  0  0  0  0  0
   -1.4414    0.7105   -1.3320 C   0  0  0  0  0  0  0  0  0  0  0  0
   -1.9586    0.0098   -0.0580 C   0  0  1  0  0  0  0  0  0  0  0  0
   -0.9534    0.4294    1.0608 C   0  0  1  0  0  0  0  0  0  0  0  0
   -1.6532    0.2222    2.3778 C   0  0  2  0  0  0  0  0  0  0  0  0
   -2.5291   -0.9386    2.7476 C   0  0  0  0  0  0  0  0  0  0  0  0
   -3.1260    0.2853    2.0858 C   0  0  2  0  0  0  0  0  0  0  0  0
   -3.3216    0.4835    0.5787 C   0  0  1  0  0  0  0  0  0  0  0  0
   -3.7455    1.9175    0.2798 C   0  0  0  0  0  0  0  0  0  0  0  0
   -4.5994    1.7756   -0.9563 C   0  0  0  0  0  0  0  0  0  0  0  0
   -5.1297    0.3829   -0.8141 C   0  0  0  0  0  0  0  0  0  0  0  0
   -6.0454   -0.0909   -1.4664 O   0  0  0  0  0  0  0  0  0  0  0  0
   -4.4307   -0.3007    0.1353 O   0  0  0  0  0  0  0  0  0  0  0  0
   -2.0401   -1.5078   -0.4012 C   0  0  0  0  0  0  0  0  0  0  0  0
    1.7822   -2.0623   -1.8632 H   0  0  0  0  0  0  0  0  0  0  0  0
    3.3592   -2.2201   -1.0970 H   0  0  0  0  0  0  0  0  0  0  0  0
    1.9157   -2.2785   -0.1184 H   0  0  0  0  0  0  0  0  0  0  0  0
    2.3615    0.0921   -2.9917 H   0  0  0  0  0  0  0  0  0  0  0  0
    2.9474    1.4715   -2.0686 H   0  0  0  0  0  0  0  0  0  0  0  0
    4.7993    0.5747   -3.2659 H   0  0  0  0  0  0  0  0  0  0  0  0
    4.4607   -1.0914   -2.7689 H   0  0  0  0  0  0  0  0  0  0  0  0
    5.4312    0.4966    0.8780 H   0  0  0  0  0  0  0  0  0  0  0  0
    3.3804    1.1686    2.2031 H   0  0  0  0  0  0  0  0  0  0  0  0
    2.5722   -0.7414    3.5829 H   0  0  0  0  0  0  0  0  0  0  0  0
    2.3783   -1.7778    2.1127 H   0  0  0  0  0  0  0  0  0  0  0  0
    0.9946    0.9800    2.6410 H   0  0  0  0  0  0  0  0  0  0  0  0
    0.3662   -1.2417    0.8601 H   0  0  0  0  0  0  0  0  0  0  0  0
    1.1595    1.4583   -0.3819 H   0  0  0  0  0  0  0  0  0  0  0  0
    0.3299    0.8686   -2.5216 H   0  0  0  0  0  0  0  0  0  0  0  0
   -0.0390   -0.7749   -2.0550 H   0  0  0  0  0  0  0  0  0  0  0  0
   -1.4248    1.7993   -1.2092 H   0  0  0  0  0  0  0  0  0  0  0  0
   -2.0991    0.5040   -2.1844 H   0  0  0  0  0  0  0  0  0  0  0  0
   -0.8365    1.5255    1.0112 H   0  0  0  0  0  0  0  0  0  0  0  0
   -1.2627    0.8382    3.1787 H   0  0  0  0  0  0  0  0  0  0  0  0
   -2.4155   -1.8797    2.2370 H   0  0  0  0  0  0  0  0  0  0  0  0
   -2.7454   -1.0846    3.8033 H   0  0  0  0  0  0  0  0  0  0  0  0
   -3.7745    0.8943    2.7025 H   0  0  0  0  0  0  0  0  0  0  0  0
   -2.9232    2.6283    0.1673 H   0  0  0  0  0  0  0  0  0  0  0  0
   -4.3809    2.3092    1.0854 H   0  0  0  0  0  0  0  0  0  0  0  0
   -5.4146    2.5033   -0.9628 H   0  0  0  0  0  0  0  0  0  0  0  0
   -4.0164    1.8511   -1.8766 H   0  0  0  0  0  0  0  0  0  0  0  0
   -2.6143   -2.0971    0.3125 H   0  0  0  0  0  0  0  0  0  0  0  0
   -2.5538   -1.6463   -1.3614 H   0  0  0  0  0  0  0  0  0  0  0  0
   -1.0638   -1.9877   -0.4959 H   0  0  0  0  0  0  0  0  0  0  0  0
  2  1  1  6
  2  3  1  0
  3  4  1  0
  4  5  1  0
  5  6  2  0
  5  7  1  0
  7  8  2  0
  8  9  1  0
  9 10  1  0
 10 11  1  0
 11 12  1  0
 12 13  1  0
 13 14  1  0
 14 15  1  0
 15 16  1  0
 16 17  1  0
 17 18  1  0
 18 19  1  0
 19 20  1  0
 20 21  1  0
 21 22  1  0
 22 23  1  0
 23 24  1  0
 24 25  2  0
 24 26  1  0
 16 27  1  6
  8  2  1  0
 13  2  1  0
 11  9  1  0
 17 12  1  0
 21 16  1  0
 20 18  1  0
 21 26  1  6
  1 28  1  0
  1 29  1  0
  1 30  1  0
  3 31  1  0
  3 32  1  0
  4 33  1  0
  4 34  1  0
  7 35  1  0
  9 36  1  1
 10 37  1  0
 10 38  1  0
 11 39  1  1
 12 40  1  6
 13 41  1  1
 14 42  1  0
 14 43  1  0
 15 44  1  0
 15 45  1  0
 17 46  1  6
 18 47  1  1
 19 48  1  0
 19 49  1  0
 20 50  1  1
 22 51  1  0
 22 52  1  0
 23 53  1  0
 23 54  1  0
 27 55  1  0
 27 56  1  0
 27 57  1  0
M  END
$$$$
