
     RDKit          3D

 21 21  0  0  0  0  0  0  0  0999 V2000
   -0.5131   -1.0332   -0.6143 C   0  0  0  0  0  0  0  0  0  0  0  0
   -1.8763   -1.3422   -0.6017 C   0  0  0  0  0  0  0  0  0  0  0  0
   -2.7602   -0.4785    0.0245 C   0  0  0  0  0  0  0  0  0  0  0  0
   -2.3046    0.6876    0.6318 C   0  0  0  0  0  0  0  0  0  0  0  0
   -0.9492    1.0035    0.6236 C   0  0  0  0  0  0  0  0  0  0  0  0
   -0.0354    0.1328    0.0084 C   0  0  0  0  0  0  0  0  0  0  0  0
    1.3869    0.5026   -0.0089 C   0  0  0  0  0  0  0  0  0  0  0  0
    2.3928   -0.3805    0.0793 C   0  0  0  0  0  0  0  0  0  0  0  0
    3.7806    0.0980    0.0683 C   0  0  0  0  0  0  0  0  0  0  0  0
    4.1670    1.2487    0.0037 O   0  0  0  0  0  0  0  0  0  0  0  0
    4.6270   -0.9409    0.1422 O   0  0  0  0  0  0  0  0  0  0  0  0
   -3.2329    1.4978    1.2264 O   0  0  0  0  0  0  0  0  0  0  0  0
   -4.0915   -0.7795    0.0366 O   0  0  0  0  0  0  0  0  0  0  0  0
    0.1659   -1.7100   -1.1274 H   0  0  0  0  0  0  0  0  0  0  0  0
   -2.2433   -2.2445   -1.0814 H   0  0  0  0  0  0  0  0  0  0  0  0
   -0.5942    1.9142    1.0970 H   0  0  0  0  0  0  0  0  0  0  0  0
    1.6016    1.5682   -0.0777 H   0  0  0  0  0  0  0  0  0  0  0  0
    2.2406   -1.4481    0.1735 H   0  0  0  0  0  0  0  0  0  0  0  0
    5.5134   -0.5236    0.1274 H   0  0  0  0  0  0  0  0  0  0  0  0
   -2.7694    2.2656    1.6032 H   0  0  0  0  0  0  0  0  0  0  0  0
   -4.5057   -0.0378    0.5210 H   0  0  0  0  0  0  0  0  0  0  0  0
  1  2  2  0
  2  3  1  0
  3  4  2  0
  4  5  1  0
  5  6  2  0
  6  7  1  0
  7  8  2  0
  8  9  1  0
  9 10  2  0
  9 11  1  0
  4 12  1  0
  3 13  1  0
  6  1  1  0
  1 14  1  0
  2 15  1  0
  5 16  1  0
  7 17  1  0
  8 18  1  0
 11 19  1  0
 12 20  1  0
 13 21  1  0
M  END
$$$$
