
     RDKit          3D

160163  0  0  0  0  0  0  0  0999 V2000
   -2.8889    8.3503    1.8632 C   0  0  0  0  0  0  0  0  0  0  0  0
   -3.5331    7.1579    1.1196 C   0  0  2  0  0  0  0  0  0  0  0  0
   -5.0462    7.1662    1.3550 C   0  0  0  0  0  0  0  0  0  0  0  0
   -5.6943    5.8628    0.9255 C   0  0  0  0  0  0  0  0  0  0  0  0
   -4.9724    4.7470    1.6516 C   0  0  1  0  0  0  0  0  0  0  0  0
   -5.7100    3.3941    1.5657 C   0  0  0  0  0  0  0  0  0  0  0  0
   -5.0798    2.3693    0.6031 C   0  0  1  0  0  0  0  0  0  0  0  0
   -5.5065    0.9053    0.8852 C   0  0  0  0  0  0  0  0  0  0  0  0
   -5.8390    0.0395   -0.1066 C   0  0  0  0  0  0  0  0  0  0  0  0
   -6.0196   -1.3909   -0.1177 C   0  0  0  0  0  0  0  0  0  0  0  0
   -6.5115   -2.1881    0.8421 C   0  0  0  0  0  0  0  0  0  0  0  0
   -6.6148   -3.6306    0.7758 C   0  0  0  0  0  0  0  0  0  0  0  0
   -6.9294   -4.3386   -0.3225 C   0  0  0  0  0  0  0  0  0  0  0  0
   -7.2270   -5.8199   -0.3144 C   0  0  2  0  0  0  0  0  0  0  0  0
   -6.4267   -6.6232   -1.3590 C   0  0  0  0  0  0  0  0  0  0  0  0
   -5.0495   -7.1198   -0.8674 C   0  0  2  0  0  0  0  0  0  0  0  0
   -3.9605   -6.0396   -0.8909 C   0  0  0  0  0  0  0  0  0  0  0  0
   -4.1255   -4.9774   -1.5114 O   0  0  0  0  0  0  0  0  0  0  0  0
   -2.6358   -6.3582   -0.1903 C   0  0  1  0  0  0  0  0  0  0  0  0
   -2.3255   -5.3412    0.9466 C   0  0  1  0  0  0  0  0  0  0  0  0
   -1.6986   -4.0356    0.4527 C   0  0  0  0  0  0  0  0  0  0  0  0
   -2.3435   -2.8509    0.4602 C   0  0  0  0  0  0  0  0  0  0  0  0
   -1.9691   -1.4505    0.0174 C   0  0  2  0  0  0  0  0  0  0  0  0
   -0.6825   -1.2048   -0.7592 C   0  0  0  0  0  0  0  0  0  0  0  0
   -0.6630   -1.3630   -1.9930 O   0  0  0  0  0  0  0  0  0  0  0  0
    0.5804   -0.7682   -0.0118 C   0  0  0  0  0  0  0  0  0  0  0  0
    1.6993   -0.1405   -0.8629 C   0  0  2  0  0  0  0  0  0  0  0  0
    1.1716    1.0449   -1.4953 O   0  0  0  0  0  0  0  0  0  0  0  0
    1.1504    2.1881   -0.7560 C   0  0  0  0  0  0  0  0  0  0  0  0
    1.6068    2.3077    0.3794 O   0  0  0  0  0  0  0  0  0  0  0  0
    0.5111    3.3055   -1.5939 C   0  0  2  0  0  0  0  0  0  0  0  0
    1.3838    3.6676   -2.8041 C   0  0  0  0  0  0  0  0  0  0  0  0
    2.6741    4.3937   -2.4285 C   0  0  0  0  0  0  0  0  0  0  0  0
    2.5849    5.1099   -1.0890 C   0  0  0  0  0  0  0  0  0  0  0  0
    1.1844    5.5914   -0.7805 C   0  0  0  0  0  0  0  0  0  0  0  0
    0.2041    4.4999   -0.7858 N   0  0  0  0  0  0  0  0  0  0  0  0
   -0.9775    4.4682   -0.0158 C   0  0  0  0  0  0  0  0  0  0  0  0
   -1.5926    3.4157    0.1065 O   0  0  0  0  0  0  0  0  0  0  0  0
   -1.5273    5.7925    0.5611 C   0  0  0  0  0  0  0  0  0  0  0  0
   -0.9511    6.8464    0.2752 O   0  0  0  0  0  0  0  0  0  0  0  0
   -2.8212    5.7822    1.4308 C   0  0  2  0  0  0  0  0  0  0  0  0
   -3.6610    4.6858    1.1071 O   0  0  0  0  0  0  0  0  0  0  0  0
   -2.4346    5.6951    2.8034 O   0  0  0  0  0  0  0  0  0  0  0  0
    2.3177   -1.0235   -1.9722 C   0  0  2  0  0  0  0  0  0  0  0  0
    2.6451   -2.4339   -1.4999 C   0  0  0  0  0  0  0  0  0  0  0  0
    3.4766   -0.3366   -2.7453 C   0  0  0  0  0  0  0  0  0  0  0  0
    4.8891   -0.1360   -2.1542 C   0  0  2  0  0  0  0  0  0  0  0  0
    5.5677   -1.3930   -1.6285 C   0  0  0  0  0  0  0  0  0  0  0  0
    7.0072   -1.0587   -1.2580 C   0  0  0  0  0  0  0  0  0  0  0  0
    7.0405   -0.1640   -0.0204 C   0  0  2  0  0  0  0  0  0  0  0  0
    5.9349    0.9206    0.0131 C   0  0  1  0  0  0  0  0  0  0  0  0
    5.0469    1.0889   -1.2346 C   0  0  0  0  0  0  0  0  0  0  0  0
    5.0310    0.5961    1.0928 O   0  0  0  0  0  0  0  0  0  0  0  0
    5.2199    1.4550    2.2134 C   0  0  0  0  0  0  0  0  0  0  0  0
    8.3297    0.4691    0.0279 O   0  0  0  0  0  0  0  0  0  0  0  0
    9.2721   -0.1124    0.8375 C   0  0  0  0  0  0  0  0  0  0  0  0
    9.0643   -1.0713    1.5751 O   0  0  0  0  0  0  0  0  0  0  0  0
   10.6148    0.5859    0.7031 C   0  0  0  0  0  0  0  0  0  0  0  0
   11.1085    0.4733   -0.7497 C   0  0  0  0  0  0  0  0  0  0  0  0
   10.4378    2.0514    1.1297 C   0  0  0  0  0  0  0  0  0  0  0  0
   11.6751    2.7579    1.1350 O   0  0  0  0  0  0  0  0  0  0  0  0
   11.6378   -0.1438    1.5984 C   0  0  0  0  0  0  0  0  0  0  0  0
   11.3328    0.0239    2.9844 O   0  0  0  0  0  0  0  0  0  0  0  0
   -2.1106   -0.5005    1.2126 C   0  0  0  0  0  0  0  0  0  0  0  0
   -0.3149   -4.2384   -0.0808 C   0  0  0  0  0  0  0  0  0  0  0  0
   -3.4822   -5.1172    1.7567 O   0  0  0  0  0  0  0  0  0  0  0  0
   -2.5875   -7.6819    0.3557 O   0  0  0  0  0  0  0  0  0  0  0  0
   -1.4153   -8.3851   -0.0261 C   0  0  0  0  0  0  0  0  0  0  0  0
   -4.6028   -8.3002   -1.7512 C   0  0  0  0  0  0  0  0  0  0  0  0
   -8.7400   -5.9552   -0.6018 C   0  0  0  0  0  0  0  0  0  0  0  0
   -5.3587    0.5120    2.3401 C   0  0  0  0  0  0  0  0  0  0  0  0
   -5.4524    2.7569   -0.7280 O   0  0  0  0  0  0  0  0  0  0  0  0
   -4.3343    2.8964   -1.5909 C   0  0  0  0  0  0  0  0  0  0  0  0
   -2.8411    9.2305    1.2044 H   0  0  0  0  0  0  0  0  0  0  0  0
   -1.8669    8.1286    2.2005 H   0  0  0  0  0  0  0  0  0  0  0  0
   -3.4608    8.6287    2.7532 H   0  0  0  0  0  0  0  0  0  0  0  0
   -3.4079    7.3289    0.0385 H   0  0  0  0  0  0  0  0  0  0  0  0
   -5.4930    8.0007    0.8119 H   0  0  0  0  0  0  0  0  0  0  0  0
   -5.2596    7.3293    2.4183 H   0  0  0  0  0  0  0  0  0  0  0  0
   -6.7590    5.8858    1.1774 H   0  0  0  0  0  0  0  0  0  0  0  0
   -5.6038    5.7353   -0.1576 H   0  0  0  0  0  0  0  0  0  0  0  0
   -4.9224    4.9861    2.7220 H   0  0  0  0  0  0  0  0  0  0  0  0
   -5.6976    2.9868    2.5889 H   0  0  0  0  0  0  0  0  0  0  0  0
   -6.7701    3.5483    1.3277 H   0  0  0  0  0  0  0  0  0  0  0  0
   -3.9877    2.3780    0.7291 H   0  0  0  0  0  0  0  0  0  0  0  0
   -5.8849    0.4466   -1.1316 H   0  0  0  0  0  0  0  0  0  0  0  0
   -5.7285   -1.8364   -1.0779 H   0  0  0  0  0  0  0  0  0  0  0  0
   -6.8274   -1.7747    1.8066 H   0  0  0  0  0  0  0  0  0  0  0  0
   -6.5064   -4.1353    1.7364 H   0  0  0  0  0  0  0  0  0  0  0  0
   -7.0482   -3.8442   -1.2914 H   0  0  0  0  0  0  0  0  0  0  0  0
   -7.0424   -6.2413    0.6681 H   0  0  0  0  0  0  0  0  0  0  0  0
   -6.3223   -6.0649   -2.2947 H   0  0  0  0  0  0  0  0  0  0  0  0
   -7.0237   -7.5101   -1.6023 H   0  0  0  0  0  0  0  0  0  0  0  0
   -5.1574   -7.4602    0.1608 H   0  0  0  0  0  0  0  0  0  0  0  0
   -1.8765   -6.2753   -0.9928 H   0  0  0  0  0  0  0  0  0  0  0  0
   -1.6098   -5.8104    1.6242 H   0  0  0  0  0  0  0  0  0  0  0  0
   -3.3888   -2.8736    0.7983 H   0  0  0  0  0  0  0  0  0  0  0  0
   -2.7584   -1.1595   -0.6847 H   0  0  0  0  0  0  0  0  0  0  0  0
    0.9748   -1.6160    0.5547 H   0  0  0  0  0  0  0  0  0  0  0  0
    0.2854   -0.0135    0.7196 H   0  0  0  0  0  0  0  0  0  0  0  0
    2.5069    0.1343   -0.1631 H   0  0  0  0  0  0  0  0  0  0  0  0
   -0.4387    2.9064   -1.9769 H   0  0  0  0  0  0  0  0  0  0  0  0
    0.7991    4.3211   -3.4726 H   0  0  0  0  0  0  0  0  0  0  0  0
    1.6212    2.7840   -3.4013 H   0  0  0  0  0  0  0  0  0  0  0  0
    3.5091    3.6841   -2.3999 H   0  0  0  0  0  0  0  0  0  0  0  0
    2.9156    5.1140   -3.2193 H   0  0  0  0  0  0  0  0  0  0  0  0
    3.2806    5.9443   -1.0493 H   0  0  0  0  0  0  0  0  0  0  0  0
    2.9033    4.4357   -0.2953 H   0  0  0  0  0  0  0  0  0  0  0  0
    0.8500    6.3317   -1.5180 H   0  0  0  0  0  0  0  0  0  0  0  0
    1.1912    6.0650    0.2159 H   0  0  0  0  0  0  0  0  0  0  0  0
   -2.9625    6.3364    3.3000 H   0  0  0  0  0  0  0  0  0  0  0  0
    1.5525   -1.1412   -2.7542 H   0  0  0  0  0  0  0  0  0  0  0  0
    3.0996   -2.4429   -0.5068 H   0  0  0  0  0  0  0  0  0  0  0  0
    3.3040   -2.9552   -2.2023 H   0  0  0  0  0  0  0  0  0  0  0  0
    1.7357   -3.0290   -1.4363 H   0  0  0  0  0  0  0  0  0  0  0  0
    3.1262    0.6392   -3.1064 H   0  0  0  0  0  0  0  0  0  0  0  0
    3.6178   -0.9357   -3.6606 H   0  0  0  0  0  0  0  0  0  0  0  0
    5.4819    0.1387   -3.0467 H   0  0  0  0  0  0  0  0  0  0  0  0
    5.5753   -2.1665   -2.4026 H   0  0  0  0  0  0  0  0  0  0  0  0
    5.0719   -1.7957   -0.7426 H   0  0  0  0  0  0  0  0  0  0  0  0
    7.5682   -1.9785   -1.0528 H   0  0  0  0  0  0  0  0  0  0  0  0
    7.5238   -0.5758   -2.0981 H   0  0  0  0  0  0  0  0  0  0  0  0
    6.8954   -0.8020    0.8600 H   0  0  0  0  0  0  0  0  0  0  0  0
    6.3914    1.8991    0.2153 H   0  0  0  0  0  0  0  0  0  0  0  0
    4.0666    1.4776   -0.9420 H   0  0  0  0  0  0  0  0  0  0  0  0
    5.4977    1.8867   -1.8446 H   0  0  0  0  0  0  0  0  0  0  0  0
    4.9393    2.4820    1.9472 H   0  0  0  0  0  0  0  0  0  0  0  0
    6.2629    1.4236    2.5548 H   0  0  0  0  0  0  0  0  0  0  0  0
    4.5738    1.1143    3.0298 H   0  0  0  0  0  0  0  0  0  0  0  0
   11.1626   -0.5767   -1.0589 H   0  0  0  0  0  0  0  0  0  0  0  0
   12.1050    0.9158   -0.8676 H   0  0  0  0  0  0  0  0  0  0  0  0
   10.4294    0.9857   -1.4401 H   0  0  0  0  0  0  0  0  0  0  0  0
    9.7804    2.5829    0.4219 H   0  0  0  0  0  0  0  0  0  0  0  0
    9.9847    2.1426    2.1215 H   0  0  0  0  0  0  0  0  0  0  0  0
   12.1942    2.4275    1.9021 H   0  0  0  0  0  0  0  0  0  0  0  0
   12.6509    0.2528    1.4466 H   0  0  0  0  0  0  0  0  0  0  0  0
   11.6833   -1.2140    1.3847 H   0  0  0  0  0  0  0  0  0  0  0  0
   10.6860   -0.6723    3.2085 H   0  0  0  0  0  0  0  0  0  0  0  0
   -2.0304    0.5454    0.8913 H   0  0  0  0  0  0  0  0  0  0  0  0
   -3.0857   -0.6289    1.6767 H   0  0  0  0  0  0  0  0  0  0  0  0
   -1.3610   -0.6992    1.9857 H   0  0  0  0  0  0  0  0  0  0  0  0
   -0.2883   -4.0328   -1.1550 H   0  0  0  0  0  0  0  0  0  0  0  0
    0.0299   -5.2713    0.0453 H   0  0  0  0  0  0  0  0  0  0  0  0
    0.4127   -3.6247    0.4573 H   0  0  0  0  0  0  0  0  0  0  0  0
   -3.1751   -4.6119    2.5318 H   0  0  0  0  0  0  0  0  0  0  0  0
   -1.4581   -8.6517   -1.0884 H   0  0  0  0  0  0  0  0  0  0  0  0
   -1.3571   -9.3042    0.5561 H   0  0  0  0  0  0  0  0  0  0  0  0
   -0.5199   -7.7916    0.1678 H   0  0  0  0  0  0  0  0  0  0  0  0
   -4.1212   -9.0709   -1.1395 H   0  0  0  0  0  0  0  0  0  0  0  0
   -5.4450   -8.7909   -2.2452 H   0  0  0  0  0  0  0  0  0  0  0  0
   -3.8904   -7.9865   -2.5187 H   0  0  0  0  0  0  0  0  0  0  0  0
   -9.3176   -5.3875    0.1318 H   0  0  0  0  0  0  0  0  0  0  0  0
   -9.0547   -7.0020   -0.5441 H   0  0  0  0  0  0  0  0  0  0  0  0
   -8.9824   -5.5756   -1.6007 H   0  0  0  0  0  0  0  0  0  0  0  0
   -6.2654    0.7766    2.8920 H   0  0  0  0  0  0  0  0  0  0  0  0
   -5.1603   -0.5496    2.4880 H   0  0  0  0  0  0  0  0  0  0  0  0
   -4.5038    1.0293    2.7991 H   0  0  0  0  0  0  0  0  0  0  0  0
   -4.6899    2.7913   -2.6158 H   0  0  0  0  0  0  0  0  0  0  0  0
   -3.8964    3.8940   -1.4852 H   0  0  0  0  0  0  0  0  0  0  0  0
   -3.5753    2.1228   -1.4270 H   0  0  0  0  0  0  0  0  0  0  0  0
  1  2  1  0
  2  3  1  0
  3  4  1  0
  4  5  1  0
  5  6  1  0
  6  7  1  0
  7  8  1  0
  8  9  2  0
  9 10  1  0
 10 11  2  0
 11 12  1  0
 12 13  2  0
 13 14  1  0
 14 15  1  0
 15 16  1  0
 16 17  1  0
 17 18  2  0
 17 19  1  0
 19 20  1  0
 20 21  1  0
 21 22  2  0
 22 23  1  0
 23 24  1  0
 24 25  2  0
 24 26  1  0
 26 27  1  0
 27 28  1  0
 28 29  1  0
 29 30  2  0
 29 31  1  0
 31 32  1  0
 32 33  1  0
 33 34  1  0
 34 35  1  0
 35 36  1  0
 36 37  1  0
 37 38  2  0
 37 39  1  0
 39 40  2  0
 39 41  1  0
 41 42  1  0
 41 43  1  1
 27 44  1  0
 44 45  1  0
 44 46  1  0
 46 47  1  0
 47 48  1  0
 48 49  1  0
 49 50  1  0
 50 51  1  0
 51 52  1  0
 51 53  1  0
 53 54  1  0
 50 55  1  0
 55 56  1  0
 56 57  2  0
 56 58  1  0
 58 59  1  0
 58 60  1  0
 60 61  1  0
 58 62  1  0
 62 63  1  0
 23 64  1  0
 21 65  1  0
 20 66  1  0
 19 67  1  0
 67 68  1  0
 16 69  1  0
 14 70  1  0
  8 71  1  0
  7 72  1  0
 72 73  1  0
 41  2  1  0
 42  5  1  0
 36 31  1  0
 52 47  1  0
  1 74  1  0
  1 75  1  0
  1 76  1  0
  2 77  1  6
  3 78  1  0
  3 79  1  0
  4 80  1  0
  4 81  1  0
  5 82  1  1
  6 83  1  0
  6 84  1  0
  7 85  1  6
  9 86  1  0
 10 87  1  0
 11 88  1  0
 12 89  1  0
 13 90  1  0
 14 91  1  1
 15 92  1  0
 15 93  1  0
 16 94  1  1
 19 95  1  6
 20 96  1  1
 22 97  1  0
 23 98  1  6
 26 99  1  0
 26100  1  0
 27101  1  1
 31102  1  6
 32103  1  0
 32104  1  0
 33105  1  0
 33106  1  0
 34107  1  0
 34108  1  0
 35109  1  0
 35110  1  0
 43111  1  0
 44112  1  6
 45113  1  0
 45114  1  0
 45115  1  0
 46116  1  0
 46117  1  0
 47118  1  6
 48119  1  0
 48120  1  0
 49121  1  0
 49122  1  0
 50123  1  1
 51124  1  1
 52125  1  0
 52126  1  0
 54127  1  0
 54128  1  0
 54129  1  0
 59130  1  0
 59131  1  0
 59132  1  0
 60133  1  0
 60134  1  0
 61135  1  0
 62136  1  0
 62137  1  0
 63138  1  0
 64139  1  0
 64140  1  0
 64141  1  0
 65142  1  0
 65143  1  0
 65144  1  0
 66145  1  0
 68146  1  0
 68147  1  0
 68148  1  0
 69149  1  0
 69150  1  0
 69151  1  0
 70152  1  0
 70153  1  0
 70154  1  0
 71155  1  0
 71156  1  0
 71157  1  0
 73158  1  0
 73159  1  0
 73160  1  0
M  END
$$$$
