
     RDKit          3D

 63 67  0  0  0  0  0  0  0  0999 V2000
    0.4292   -2.0649    0.2657 C   0  0  0  0  0  0  0  0  0  0  0  0
    0.0829   -0.5623    0.1001 C   0  0  0  0  0  0  0  0  0  0  0  0
   -0.4794   -0.3290   -1.3167 C   0  0  0  0  0  0  0  0  0  0  0  0
   -1.9920   -0.0441   -1.3503 C   0  0  0  0  0  0  0  0  0  0  0  0
   -2.8329   -0.9492   -0.3939 C   0  0  0  0  0  0  0  0  0  0  0  0
   -2.2748   -0.9012    1.0818 C   0  0  0  0  0  0  0  0  0  0  0  0
   -3.2794   -0.4831    2.1614 C   0  0  0  0  0  0  0  0  0  0  0  0
   -4.2668    0.6017    1.7620 C   0  0  0  0  0  0  0  0  0  0  0  0
   -4.7354    0.5458    0.3326 C   0  0  0  0  0  0  0  0  0  0  0  0
   -5.4286    1.5834   -0.1570 C   0  0  0  0  0  0  0  0  0  0  0  0
   -5.8800    1.6320   -1.5506 C   0  0  0  0  0  0  0  0  0  0  0  0
   -6.5887    2.5492   -1.9559 O   0  0  0  0  0  0  0  0  0  0  0  0
   -5.4462    0.6257   -2.3640 N   0  0  0  0  0  0  0  0  0  0  0  0
   -4.7979   -0.5253   -1.9890 C   0  0  0  0  0  0  0  0  0  0  0  0
   -4.6056   -1.3989   -2.8385 O   0  0  0  0  0  0  0  0  0  0  0  0
   -4.3775   -0.6778   -0.5018 C   0  0  0  0  0  0  0  0  0  0  0  0
   -5.2037   -1.9006   -0.0232 C   0  0  0  0  0  0  0  0  0  0  0  0
   -0.9717   -0.0784    1.1363 C   0  0  0  0  0  0  0  0  0  0  0  0
   -0.1869   -0.0328    2.4444 C   0  0  0  0  0  0  0  0  0  0  0  0
    1.2154    0.4347    2.0349 C   0  0  0  0  0  0  0  0  0  0  0  0
    1.2689    0.3659    0.4844 C   0  0  0  0  0  0  0  0  0  0  0  0
    2.6904    0.0319    0.0047 C   0  0  0  0  0  0  0  0  0  0  0  0
    2.9978   -1.0281   -0.5310 O   0  0  0  0  0  0  0  0  0  0  0  0
    3.5680    1.0756    0.2849 N   0  0  0  0  0  0  0  0  0  0  0  0
    4.9482    1.1465    0.0049 C   0  0  0  0  0  0  0  0  0  0  0  0
    5.6763    0.1345   -0.6263 C   0  0  0  0  0  0  0  0  0  0  0  0
    7.0541    0.2817   -0.8699 C   0  0  0  0  0  0  0  0  0  0  0  0
    7.6995    1.4592   -0.4629 C   0  0  0  0  0  0  0  0  0  0  0  0
    6.9781    2.4724    0.1716 C   0  0  0  0  0  0  0  0  0  0  0  0
    5.6097    2.3187    0.3946 C   0  0  0  0  0  0  0  0  0  0  0  0
    7.8277   -0.8323   -1.5423 C   0  0  0  0  0  0  0  0  0  0  0  0
    7.2025   -1.3235   -2.6489 F   0  0  0  0  0  0  0  0  0  0  0  0
    8.0351   -1.8964   -0.7160 F   0  0  0  0  0  0  0  0  0  0  0  0
    9.0678   -0.4475   -1.9656 F   0  0  0  0  0  0  0  0  0  0  0  0
   -0.4535   -2.7043    0.1891 H   0  0  0  0  0  0  0  0  0  0  0  0
    0.9119   -2.2820    1.2243 H   0  0  0  0  0  0  0  0  0  0  0  0
    1.1026   -2.4108   -0.5215 H   0  0  0  0  0  0  0  0  0  0  0  0
   -0.2830   -1.2057   -1.9498 H   0  0  0  0  0  0  0  0  0  0  0  0
    0.0400    0.4967   -1.8163 H   0  0  0  0  0  0  0  0  0  0  0  0
   -2.1606    1.0150   -1.1171 H   0  0  0  0  0  0  0  0  0  0  0  0
   -2.3132   -0.1809   -2.3922 H   0  0  0  0  0  0  0  0  0  0  0  0
   -2.6644   -1.9721   -0.7550 H   0  0  0  0  0  0  0  0  0  0  0  0
   -2.0189   -1.9333    1.3574 H   0  0  0  0  0  0  0  0  0  0  0  0
   -2.7687   -0.1659    3.0786 H   0  0  0  0  0  0  0  0  0  0  0  0
   -3.8289   -1.3778    2.4870 H   0  0  0  0  0  0  0  0  0  0  0  0
   -3.8041    1.5816    1.9553 H   0  0  0  0  0  0  0  0  0  0  0  0
   -5.1411    0.5251    2.4273 H   0  0  0  0  0  0  0  0  0  0  0  0
   -5.6929    2.4482    0.4518 H   0  0  0  0  0  0  0  0  0  0  0  0
   -5.7584    0.6736   -3.3245 H   0  0  0  0  0  0  0  0  0  0  0  0
   -6.2799   -1.7383   -0.1853 H   0  0  0  0  0  0  0  0  0  0  0  0
   -4.9288   -2.8050   -0.5803 H   0  0  0  0  0  0  0  0  0  0  0  0
   -5.0880   -2.1344    1.0355 H   0  0  0  0  0  0  0  0  0  0  0  0
   -1.2404    0.9675    0.9179 H   0  0  0  0  0  0  0  0  0  0  0  0
   -0.1320   -1.0194    2.9192 H   0  0  0  0  0  0  0  0  0  0  0  0
   -0.6321    0.6574    3.1746 H   0  0  0  0  0  0  0  0  0  0  0  0
    1.4159    1.4536    2.3842 H   0  0  0  0  0  0  0  0  0  0  0  0
    1.9602   -0.2215    2.4937 H   0  0  0  0  0  0  0  0  0  0  0  0
    1.0476    1.3744    0.0878 H   0  0  0  0  0  0  0  0  0  0  0  0
    3.1740    1.8837    0.7495 H   0  0  0  0  0  0  0  0  0  0  0  0
    5.1956   -0.7867   -0.9462 H   0  0  0  0  0  0  0  0  0  0  0  0
    8.7746    1.5792   -0.6126 H   0  0  0  0  0  0  0  0  0  0  0  0
    7.4881    3.3741    0.5089 H   0  0  0  0  0  0  0  0  0  0  0  0
    5.0740    3.1244    0.8894 H   0  0  0  0  0  0  0  0  0  0  0  0
  1  2  1  0
  2  3  1  0
  3  4  1  0
  4  5  1  0
  5  6  1  0
  6  7  1  0
  7  8  1  0
  8  9  1  0
  9 10  2  0
 10 11  1  0
 11 12  2  0
 11 13  1  0
 13 14  1  0
 14 15  2  0
 14 16  1  0
 16 17  1  0
  6 18  1  0
 18 19  1  0
 19 20  1  0
 20 21  1  0
 21 22  1  0
 22 23  2  0
 22 24  1  0
 24 25  1  0
 25 26  2  0
 26 27  1  0
 27 28  2  0
 28 29  1  0
 29 30  2  0
 27 31  1  0
 31 32  1  0
 31 33  1  0
 31 34  1  0
 18  2  1  0
 30 25  1  0
 21  2  1  0
 16  5  1  0
 16  9  1  0
  1 35  1  0
  1 36  1  0
  1 37  1  0
  3 38  1  0
  3 39  1  0
  4 40  1  0
  4 41  1  0
  5 42  1  0
  6 43  1  0
  7 44  1  0
  7 45  1  0
  8 46  1  0
  8 47  1  0
 10 48  1  0
 13 49  1  0
 17 50  1  0
 17 51  1  0
 17 52  1  0
 18 53  1  0
 19 54  1  0
 19 55  1  0
 20 56  1  0
 20 57  1  0
 21 58  1  0
 24 59  1  0
 26 60  1  0
 28 61  1  0
 29 62  1  0
 30 63  1  0
M  END
$$$$
