
     RDKit          3D

 21 20  0  0  0  0  0  0  0  0999 V2000
    4.0097   -0.2484   -0.4011 C   0  0  0  0  0  0  0  0  0  0  0  0
    2.6514   -0.6829   -0.3154 O   0  0  0  0  0  0  0  0  0  0  0  0
    1.7752    0.2985    0.0511 C   0  0  0  0  0  0  0  0  0  0  0  0
    2.0936    1.4503    0.3133 O   0  0  0  0  0  0  0  0  0  0  0  0
    0.3727   -0.2804    0.1467 C   0  0  0  0  0  0  0  0  0  0  0  0
   -0.7571    0.6511   -0.2083 C   0  0  0  0  0  0  0  0  0  0  0  0
   -0.6701    1.7420   -0.9911 C   0  0  0  0  0  0  0  0  0  0  0  0
   -2.1094    0.3426    0.3442 C   0  0  0  0  0  0  0  0  0  0  0  0
   -3.0491    1.1231    0.3550 O   0  0  0  0  0  0  0  0  0  0  0  0
   -2.1414   -0.9329    0.8083 O   0  0  0  0  0  0  0  0  0  0  0  0
   -3.4067   -1.3212    1.3456 C   0  0  0  0  0  0  0  0  0  0  0  0
    4.6189   -1.1013   -0.7128 H   0  0  0  0  0  0  0  0  0  0  0  0
    4.1129    0.5431   -1.1501 H   0  0  0  0  0  0  0  0  0  0  0  0
    4.3647    0.0924    0.5764 H   0  0  0  0  0  0  0  0  0  0  0  0
    0.3066   -1.1578   -0.5085 H   0  0  0  0  0  0  0  0  0  0  0  0
    0.2770   -0.6239    1.1840 H   0  0  0  0  0  0  0  0  0  0  0  0
    0.2632    2.0585   -1.4457 H   0  0  0  0  0  0  0  0  0  0  0  0
   -1.5356    2.3681   -1.1978 H   0  0  0  0  0  0  0  0  0  0  0  0
   -3.6710   -0.6900    2.1999 H   0  0  0  0  0  0  0  0  0  0  0  0
   -3.3241   -2.3551    1.6922 H   0  0  0  0  0  0  0  0  0  0  0  0
   -4.1814   -1.2757    0.5738 H   0  0  0  0  0  0  0  0  0  0  0  0
  1  2  1  0
  2  3  1  0
  3  4  2  0
  3  5  1  0
  5  6  1  0
  6  7  2  3
  6  8  1  0
  8  9  2  0
  8 10  1  0
 10 11  1  0
  1 12  1  0
  1 13  1  0
  1 14  1  0
  5 15  1  0
  5 16  1  0
  7 17  1  0
  7 18  1  0
 11 19  1  0
 11 20  1  0
 11 21  1  0
M  END
$$$$
