
     RDKit          3D

 49 52  0  0  0  0  0  0  0  0999 V2000
   -2.3328    0.0404   -2.2602 C   0  0  0  0  0  0  0  0  0  0  0  0
   -2.3903   -0.2157   -0.7444 C   0  0  0  0  0  0  0  0  0  0  0  0
   -1.6319   -1.5137   -0.4094 C   0  0  0  0  0  0  0  0  0  0  0  0
   -0.1097   -1.3494   -0.3920 C   0  0  0  0  0  0  0  0  0  0  0  0
    0.3487   -0.2662    0.6102 C   0  0  0  0  0  0  0  0  0  0  0  0
   -0.3447    1.0885    0.2806 C   0  0  0  0  0  0  0  0  0  0  0  0
    0.3146    1.7668   -0.9329 C   0  0  0  0  0  0  0  0  0  0  0  0
    1.7978    2.0133   -0.7005 C   0  0  0  0  0  0  0  0  0  0  0  0
    2.5343    0.7490   -0.3330 C   0  0  0  0  0  0  0  0  0  0  0  0
    3.7078    0.4670   -0.9284 C   0  0  0  0  0  0  0  0  0  0  0  0
    4.5610   -0.6616   -0.4835 C   0  0  0  0  0  0  0  0  0  0  0  0
    5.6165   -0.8880   -1.0701 O   0  0  0  0  0  0  0  0  0  0  0  0
    4.1341   -1.4368    0.7370 C   0  0  0  0  0  0  0  0  0  0  0  0
    2.6136   -1.5077    0.7966 C   0  0  0  0  0  0  0  0  0  0  0  0
    1.9205   -0.1127    0.7724 C   0  0  0  0  0  0  0  0  0  0  0  0
    2.2059    0.5884    2.1284 C   0  0  0  0  0  0  0  0  0  0  0  0
   -1.8758    0.9733    0.0977 C   0  0  0  0  0  0  0  0  0  0  0  0
   -2.6005    0.8220    1.4538 C   0  0  0  0  0  0  0  0  0  0  0  0
   -3.8592    0.0009    1.1929 C   0  0  0  0  0  0  0  0  0  0  0  0
   -3.8739   -0.2729   -0.3058 C   0  0  0  0  0  0  0  0  0  0  0  0
   -4.4941   -1.5186   -0.5695 O   0  0  0  0  0  0  0  0  0  0  0  0
   -1.3169    0.0012   -2.6568 H   0  0  0  0  0  0  0  0  0  0  0  0
   -2.9082   -0.7146   -2.8077 H   0  0  0  0  0  0  0  0  0  0  0  0
   -2.7531    1.0197   -2.5145 H   0  0  0  0  0  0  0  0  0  0  0  0
   -1.9378   -1.8926    0.5743 H   0  0  0  0  0  0  0  0  0  0  0  0
   -1.8970   -2.3021   -1.1256 H   0  0  0  0  0  0  0  0  0  0  0  0
    0.2697   -1.1389   -1.3972 H   0  0  0  0  0  0  0  0  0  0  0  0
    0.2882   -2.3271   -0.1016 H   0  0  0  0  0  0  0  0  0  0  0  0
   -0.0258   -0.5987    1.5889 H   0  0  0  0  0  0  0  0  0  0  0  0
   -0.1896    1.7652    1.1318 H   0  0  0  0  0  0  0  0  0  0  0  0
    0.2023    1.1664   -1.8381 H   0  0  0  0  0  0  0  0  0  0  0  0
   -0.1744    2.7284   -1.1312 H   0  0  0  0  0  0  0  0  0  0  0  0
    2.2236    2.4721   -1.6015 H   0  0  0  0  0  0  0  0  0  0  0  0
    1.9244    2.7459    0.1062 H   0  0  0  0  0  0  0  0  0  0  0  0
    4.1353    1.0863   -1.7096 H   0  0  0  0  0  0  0  0  0  0  0  0
    4.5370   -2.4529    0.6593 H   0  0  0  0  0  0  0  0  0  0  0  0
    4.5641   -0.9685    1.6268 H   0  0  0  0  0  0  0  0  0  0  0  0
    2.3136   -2.0961   -0.0778 H   0  0  0  0  0  0  0  0  0  0  0  0
    2.3029   -2.0737    1.6832 H   0  0  0  0  0  0  0  0  0  0  0  0
    1.7087    1.5598    2.2108 H   0  0  0  0  0  0  0  0  0  0  0  0
    3.2752    0.7742    2.2783 H   0  0  0  0  0  0  0  0  0  0  0  0
    1.8582   -0.0269    2.9663 H   0  0  0  0  0  0  0  0  0  0  0  0
   -2.2451    1.9095   -0.3464 H   0  0  0  0  0  0  0  0  0  0  0  0
   -2.8506    1.8067    1.8647 H   0  0  0  0  0  0  0  0  0  0  0  0
   -1.9847    0.3149    2.2038 H   0  0  0  0  0  0  0  0  0  0  0  0
   -4.7611    0.5415    1.5003 H   0  0  0  0  0  0  0  0  0  0  0  0
   -3.8417   -0.9287    1.7740 H   0  0  0  0  0  0  0  0  0  0  0  0
   -4.4583    0.5119   -0.8035 H   0  0  0  0  0  0  0  0  0  0  0  0
   -4.5005   -1.6495   -1.5324 H   0  0  0  0  0  0  0  0  0  0  0  0
  1  2  1  0
  2  3  1  0
  3  4  1  0
  4  5  1  0
  5  6  1  0
  6  7  1  0
  7  8  1  0
  8  9  1  0
  9 10  2  0
 10 11  1  0
 11 12  2  0
 11 13  1  0
 13 14  1  0
 14 15  1  0
 15 16  1  0
  6 17  1  0
 17 18  1  0
 18 19  1  0
 19 20  1  0
 20 21  1  0
 17  2  1  0
 20  2  1  0
 15  5  1  0
 15  9  1  0
  1 22  1  0
  1 23  1  0
  1 24  1  0
  3 25  1  0
  3 26  1  0
  4 27  1  0
  4 28  1  0
  5 29  1  0
  6 30  1  0
  7 31  1  0
  7 32  1  0
  8 33  1  0
  8 34  1  0
 10 35  1  0
 13 36  1  0
 13 37  1  0
 14 38  1  0
 14 39  1  0
 16 40  1  0
 16 41  1  0
 16 42  1  0
 17 43  1  0
 18 44  1  0
 18 45  1  0
 19 46  1  0
 19 47  1  0
 20 48  1  0
 21 49  1  0
M  END
$$$$
