
     RDKit          3D

 49 52  0  0  0  0  0  0  0  0999 V2000
   -2.0406   -0.7032    1.7974 C   0  0  0  0  0  0  0  0  0  0  0  0
   -2.1923    0.2550    0.5817 C   0  0  0  0  0  0  0  0  0  0  0  0
   -1.4365    1.5567    0.9292 C   0  0  0  0  0  0  0  0  0  0  0  0
   -0.3172    1.9439   -0.0503 C   0  0  0  0  0  0  0  0  0  0  0  0
    0.5075    0.7932   -0.6878 C   0  0  0  0  0  0  0  0  0  0  0  0
   -0.2139   -0.5806   -0.7199 C   0  0  0  0  0  0  0  0  0  0  0  0
    0.3602   -1.4205   -1.8711 C   0  0  0  0  0  0  0  0  0  0  0  0
    1.8858   -1.2431   -2.0119 C   0  0  0  0  0  0  0  0  0  0  0  0
    2.5179   -0.7351   -0.7315 C   0  0  0  0  0  0  0  0  0  0  0  0
    3.4210   -1.4775   -0.0687 C   0  0  0  0  0  0  0  0  0  0  0  0
    3.9854   -1.0384    1.2295 C   0  0  0  0  0  0  0  0  0  0  0  0
    4.8772   -1.7049    1.7508 O   0  0  0  0  0  0  0  0  0  0  0  0
    3.4746    0.2382    1.8536 C   0  0  0  0  0  0  0  0  0  0  0  0
    2.0854    0.6123    1.3429 C   0  0  0  0  0  0  0  0  0  0  0  0
    1.9879    0.6096   -0.2024 C   0  0  0  0  0  0  0  0  0  0  0  0
    2.8541    1.7488   -0.7861 C   0  0  0  0  0  0  0  0  0  0  0  0
   -1.7080   -0.3263   -0.7676 C   0  0  0  0  0  0  0  0  0  0  0  0
   -2.6882   -1.4552   -1.0499 C   0  0  0  0  0  0  0  0  0  0  0  0
   -4.0269   -0.8955   -0.5282 C   0  0  0  0  0  0  0  0  0  0  0  0
   -3.6871    0.4079    0.2294 C   0  0  0  0  0  0  0  0  0  0  0  0
   -4.5297    0.5699    1.3535 O   0  0  0  0  0  0  0  0  0  0  0  0
   -2.4920   -0.2629    2.6946 H   0  0  0  0  0  0  0  0  0  0  0  0
   -0.9912   -0.8947    2.0409 H   0  0  0  0  0  0  0  0  0  0  0  0
   -2.5211   -1.6733    1.6420 H   0  0  0  0  0  0  0  0  0  0  0  0
   -2.1412    2.3941    1.0066 H   0  0  0  0  0  0  0  0  0  0  0  0
   -0.9793    1.4772    1.9241 H   0  0  0  0  0  0  0  0  0  0  0  0
   -0.8068    2.4805   -0.8766 H   0  0  0  0  0  0  0  0  0  0  0  0
    0.3330    2.6944    0.4116 H   0  0  0  0  0  0  0  0  0  0  0  0
    0.5807    1.1082   -1.7430 H   0  0  0  0  0  0  0  0  0  0  0  0
    0.0153   -1.1349    0.1965 H   0  0  0  0  0  0  0  0  0  0  0  0
    0.1279   -2.4779   -1.6929 H   0  0  0  0  0  0  0  0  0  0  0  0
   -0.1165   -1.1555   -2.8228 H   0  0  0  0  0  0  0  0  0  0  0  0
    2.3294   -2.1918   -2.3375 H   0  0  0  0  0  0  0  0  0  0  0  0
    2.0972   -0.5237   -2.8131 H   0  0  0  0  0  0  0  0  0  0  0  0
    3.7767   -2.4352   -0.4325 H   0  0  0  0  0  0  0  0  0  0  0  0
    3.4256    0.0934    2.9387 H   0  0  0  0  0  0  0  0  0  0  0  0
    4.1987    1.0338    1.6516 H   0  0  0  0  0  0  0  0  0  0  0  0
    1.3631   -0.1000    1.7616 H   0  0  0  0  0  0  0  0  0  0  0  0
    1.8207    1.5947    1.7505 H   0  0  0  0  0  0  0  0  0  0  0  0
    2.5604    2.7216   -0.3780 H   0  0  0  0  0  0  0  0  0  0  0  0
    3.9191    1.6091   -0.5709 H   0  0  0  0  0  0  0  0  0  0  0  0
    2.7592    1.8059   -1.8769 H   0  0  0  0  0  0  0  0  0  0  0  0
   -1.8843    0.4140   -1.5662 H   0  0  0  0  0  0  0  0  0  0  0  0
   -2.7432   -1.6946   -2.1167 H   0  0  0  0  0  0  0  0  0  0  0  0
   -2.4172   -2.3739   -0.5189 H   0  0  0  0  0  0  0  0  0  0  0  0
   -4.5311   -1.6271    0.1132 H   0  0  0  0  0  0  0  0  0  0  0  0
   -4.7075   -0.6778   -1.3590 H   0  0  0  0  0  0  0  0  0  0  0  0
   -3.8441    1.2651   -0.4379 H   0  0  0  0  0  0  0  0  0  0  0  0
   -4.2480    1.3760    1.8183 H   0  0  0  0  0  0  0  0  0  0  0  0
  1  2  1  0
  2  3  1  0
  3  4  1  0
  4  5  1  0
  5  6  1  0
  6  7  1  0
  7  8  1  0
  8  9  1  0
  9 10  2  0
 10 11  1  0
 11 12  2  0
 11 13  1  0
 13 14  1  0
 14 15  1  0
 15 16  1  0
  6 17  1  0
 17 18  1  0
 18 19  1  0
 19 20  1  0
 20 21  1  0
 17  2  1  0
 20  2  1  0
 15  5  1  0
 15  9  1  0
  1 22  1  0
  1 23  1  0
  1 24  1  0
  3 25  1  0
  3 26  1  0
  4 27  1  0
  4 28  1  0
  5 29  1  0
  6 30  1  0
  7 31  1  0
  7 32  1  0
  8 33  1  0
  8 34  1  0
 10 35  1  0
 13 36  1  0
 13 37  1  0
 14 38  1  0
 14 39  1  0
 16 40  1  0
 16 41  1  0
 16 42  1  0
 17 43  1  0
 18 44  1  0
 18 45  1  0
 19 46  1  0
 19 47  1  0
 20 48  1  0
 21 49  1  0
M  END
$$$$
