
     RDKit          3D

  9  8  0  0  0  0  0  0  0  0999 V2000
    0.8928    0.0072   -0.1438 C   0  0  0  0  0  0  0  0  0  0  0  0
   -0.5056   -0.3604    0.3073 C   0  0  0  0  0  0  0  0  0  0  0  0
   -1.3443    0.7851    0.2699 O   0  0  0  0  0  0  0  0  0  0  0  0
    0.8798    0.3949   -1.1677 H   0  0  0  0  0  0  0  0  0  0  0  0
    1.5559   -0.8615   -0.1049 H   0  0  0  0  0  0  0  0  0  0  0  0
    1.3069    0.7976    0.4907 H   0  0  0  0  0  0  0  0  0  0  0  0
   -0.9361   -1.1321   -0.3380 H   0  0  0  0  0  0  0  0  0  0  0  0
   -0.4898   -0.7382    1.3337 H   0  0  0  0  0  0  0  0  0  0  0  0
   -1.3595    1.1074   -0.6474 H   0  0  0  0  0  0  0  0  0  0  0  0
  1  2  1  0
  2  3  1  0
  1  4  1  0
  1  5  1  0
  1  6  1  0
  2  7  1  0
  2  8  1  0
  3  9  1  0
M  END
$$$$
