
     RDKit          3D

 28 27  0  0  0  0  0  0  0  0999 V2000
   -3.7829    1.1902   -0.4888 C   0  0  0  0  0  0  0  0  0  0  0  0
   -2.5926    0.2518   -0.2670 C   0  0  0  0  0  0  0  0  0  0  0  0
   -1.3530    1.0657    0.1328 C   0  0  0  0  0  0  0  0  0  0  0  0
   -0.1907    0.2079    0.6240 C   0  0  0  0  0  0  0  0  0  0  0  0
    0.8725    1.0693    0.9859 O   0  0  0  0  0  0  0  0  0  0  0  0
    2.2193    0.4777    1.6177 P   0  0  0  0  0  5  0  0  0  0  0  0
    3.3845    1.4151    1.6638 O   0  0  0  0  0  0  0  0  0  0  0  0
    1.7646   -0.0735    3.0508 O   0  0  0  0  0  0  0  0  0  0  0  0
    2.5455   -0.8629    0.8257 O   0  0  0  0  0  0  0  0  0  0  0  0
    3.3822   -0.7454   -0.5221 P   0  0  0  0  0  5  0  0  0  0  0  0
    2.7786    0.0584   -1.6178 O   0  0  0  0  0  0  0  0  0  0  0  0
    3.6313   -2.2737   -0.9185 O   0  0  0  0  0  0  0  0  0  0  0  0
    4.8386   -0.3009   -0.0501 O   0  0  0  0  0  0  0  0  0  0  0  0
   -2.3562   -0.5863   -1.5236 C   0  0  0  0  0  0  0  0  0  0  0  0
   -3.4667   -1.3340   -1.7680 F   0  0  0  0  0  0  0  0  0  0  0  0
   -4.6858    0.6246   -0.7418 H   0  0  0  0  0  0  0  0  0  0  0  0
   -3.5858    1.8965   -1.3025 H   0  0  0  0  0  0  0  0  0  0  0  0
   -3.9969    1.7676    0.4169 H   0  0  0  0  0  0  0  0  0  0  0  0
   -2.8610   -0.4248    0.5542 H   0  0  0  0  0  0  0  0  0  0  0  0
   -1.0173    1.6872   -0.7078 H   0  0  0  0  0  0  0  0  0  0  0  0
   -1.6158    1.7732    0.9306 H   0  0  0  0  0  0  0  0  0  0  0  0
   -0.4944   -0.3851    1.4921 H   0  0  0  0  0  0  0  0  0  0  0  0
    0.1567   -0.4668   -0.1626 H   0  0  0  0  0  0  0  0  0  0  0  0
    1.1572   -0.8308    3.0141 H   0  0  0  0  0  0  0  0  0  0  0  0
    4.1145   -2.3385   -1.7620 H   0  0  0  0  0  0  0  0  0  0  0  0
    4.8441    0.6073    0.3285 H   0  0  0  0  0  0  0  0  0  0  0  0
   -1.5230   -1.2826   -1.4018 H   0  0  0  0  0  0  0  0  0  0  0  0
   -2.1675    0.0378   -2.4026 H   0  0  0  0  0  0  0  0  0  0  0  0
  1  2  1  0
  2  3  1  0
  3  4  1  0
  4  5  1  0
  5  6  1  0
  6  7  2  0
  6  8  1  0
  6  9  1  0
  9 10  1  0
 10 11  2  0
 10 12  1  0
 10 13  1  0
  2 14  1  0
 14 15  1  0
  1 16  1  0
  1 17  1  0
  1 18  1  0
  2 19  1  0
  3 20  1  0
  3 21  1  0
  4 22  1  0
  4 23  1  0
  8 24  1  0
 12 25  1  0
 13 26  1  0
 14 27  1  0
 14 28  1  0
M  END
$$$$
