
     RDKit          3D

 23 23  0  0  0  0  0  0  0  0999 V2000
    1.5568   -3.1886   -0.5505 C   0  0  0  0  0  0  0  0  0  0  0  0
    1.7412   -1.8187   -0.2245 O   0  0  0  0  0  0  0  0  0  0  0  0
    0.6218   -1.0313   -0.1188 C   0  0  0  0  0  0  0  0  0  0  0  0
    0.8491    0.3437    0.1031 C   0  0  0  0  0  0  0  0  0  0  0  0
   -0.2374    1.2168    0.2261 C   0  0  0  0  0  0  0  0  0  0  0  0
   -1.5479    0.7314    0.1309 C   0  0  0  0  0  0  0  0  0  0  0  0
   -1.7708   -0.6311   -0.0889 C   0  0  0  0  0  0  0  0  0  0  0  0
   -0.6899   -1.5087   -0.2133 C   0  0  0  0  0  0  0  0  0  0  0  0
   -2.6628    1.6990    0.2741 C   0  0  0  0  0  0  0  0  0  0  0  0
   -2.5490    2.8978    0.4487 O   0  0  0  0  0  0  0  0  0  0  0  0
   -3.8719    1.1156    0.2001 O   0  0  0  0  0  0  0  0  0  0  0  0
    2.1642    0.7290    0.1920 O   0  0  0  0  0  0  0  0  0  0  0  0
    2.4379    2.1174    0.3150 C   0  0  0  0  0  0  0  0  0  0  0  0
    1.0112   -3.7119    0.2408 H   0  0  0  0  0  0  0  0  0  0  0  0
    1.0595   -3.3028   -1.5193 H   0  0  0  0  0  0  0  0  0  0  0  0
    2.5462   -3.6483   -0.6295 H   0  0  0  0  0  0  0  0  0  0  0  0
   -0.0937    2.2791    0.3992 H   0  0  0  0  0  0  0  0  0  0  0  0
   -2.7824   -1.0238   -0.1614 H   0  0  0  0  0  0  0  0  0  0  0  0
   -0.9056   -2.5590   -0.3807 H   0  0  0  0  0  0  0  0  0  0  0  0
   -4.4984    1.8605    0.3154 H   0  0  0  0  0  0  0  0  0  0  0  0
    2.0666    2.6718   -0.5547 H   0  0  0  0  0  0  0  0  0  0  0  0
    2.0297    2.5229    1.2479 H   0  0  0  0  0  0  0  0  0  0  0  0
    3.5255    2.2391    0.3484 H   0  0  0  0  0  0  0  0  0  0  0  0
  1  2  1  0
  2  3  1  0
  3  4  2  0
  4  5  1  0
  5  6  2  0
  6  7  1  0
  7  8  2  0
  6  9  1  0
  9 10  2  0
  9 11  1  0
  4 12  1  0
 12 13  1  0
  8  3  1  0
  1 14  1  0
  1 15  1  0
  1 16  1  0
  5 17  1  0
  7 18  1  0
  8 19  1  0
 11 20  1  0
 13 21  1  0
 13 22  1  0
 13 23  1  0
M  END
$$$$
