
     RDKit          3D

 63 65  0  0  0  0  0  0  0  0999 V2000
   -5.4017   -4.2381   -2.4083 C   0  0  0  0  0  0  0  0  0  0  0  0
   -5.3843   -3.0861   -1.4522 C   0  0  0  0  0  0  0  0  0  0  0  0
   -4.2278   -2.3297   -1.2633 C   0  0  0  0  0  0  0  0  0  0  0  0
   -4.2712   -1.2340   -0.4058 C   0  0  0  0  0  0  0  0  0  0  0  0
   -5.3917   -0.8749    0.2658 N   0  0  0  0  0  0  0  0  0  0  0  0
   -6.5012   -1.6044    0.0694 C   0  0  0  0  0  0  0  0  0  0  0  0
   -6.5448   -2.6991   -0.7813 C   0  0  0  0  0  0  0  0  0  0  0  0
   -7.6461   -1.1877    0.7463 N   0  0  0  0  0  0  0  0  0  0  0  0
   -3.0416   -0.3939   -0.1738 C   0  0  0  0  0  0  0  0  0  0  0  0
   -2.3048   -0.8289    1.0945 C   0  0  0  0  0  0  0  0  0  0  0  0
   -1.0613   -0.0028    1.3214 C   0  0  0  0  0  0  0  0  0  0  0  0
    0.1894   -0.4605    0.8846 C   0  0  0  0  0  0  0  0  0  0  0  0
    1.3388    0.3273    1.0409 C   0  0  0  0  0  0  0  0  0  0  0  0
    1.2240    1.5752    1.6701 C   0  0  0  0  0  0  0  0  0  0  0  0
   -0.0151    2.0430    2.1275 C   0  0  0  0  0  0  0  0  0  0  0  0
   -1.1539    1.2516    1.9384 C   0  0  0  0  0  0  0  0  0  0  0  0
   -0.1240    3.3977    2.7833 C   0  0  0  0  0  0  0  0  0  0  0  0
   -0.3256    4.5128    1.7548 C   0  0  0  0  0  0  0  0  0  0  0  0
   -0.4111    5.8766    2.4364 C   0  0  0  0  0  0  0  0  0  0  0  0
   -0.6278    6.9274    1.4479 N   0  0  0  0  0  0  0  0  0  0  0  0
    2.6924   -0.1568    0.5724 C   0  0  0  0  0  0  0  0  0  0  0  0
    2.7294   -0.4986   -0.9194 C   0  0  0  0  0  0  0  0  0  0  0  0
    4.1172   -0.8927   -1.3560 C   0  0  0  0  0  0  0  0  0  0  0  0
    4.8662    0.0654   -1.9495 N   0  0  0  0  0  0  0  0  0  0  0  0
    6.1079   -0.2609   -2.3397 C   0  0  0  0  0  0  0  0  0  0  0  0
    6.6540   -1.5193   -2.1473 C   0  0  0  0  0  0  0  0  0  0  0  0
    5.8827   -2.5087   -1.5358 C   0  0  0  0  0  0  0  0  0  0  0  0
    4.5912   -2.1815   -1.1260 C   0  0  0  0  0  0  0  0  0  0  0  0
    6.4564   -3.8674   -1.2761 C   0  0  0  0  0  0  0  0  0  0  0  0
    6.8547    0.7500   -2.9429 N   0  0  0  0  0  0  0  0  0  0  0  0
   -5.6716   -3.8893   -3.4096 H   0  0  0  0  0  0  0  0  0  0  0  0
   -6.1245   -4.9989   -2.0918 H   0  0  0  0  0  0  0  0  0  0  0  0
   -4.4196   -4.7208   -2.4548 H   0  0  0  0  0  0  0  0  0  0  0  0
   -3.3103   -2.5840   -1.7839 H   0  0  0  0  0  0  0  0  0  0  0  0
   -7.4770   -3.2344   -0.9270 H   0  0  0  0  0  0  0  0  0  0  0  0
   -8.0473   -1.9416    1.2906 H   0  0  0  0  0  0  0  0  0  0  0  0
   -7.3660   -0.4045    1.3315 H   0  0  0  0  0  0  0  0  0  0  0  0
   -2.3794   -0.4516   -1.0470 H   0  0  0  0  0  0  0  0  0  0  0  0
   -3.3463    0.6579   -0.0956 H   0  0  0  0  0  0  0  0  0  0  0  0
   -2.0337   -1.8910    1.0339 H   0  0  0  0  0  0  0  0  0  0  0  0
   -2.9601   -0.7418    1.9711 H   0  0  0  0  0  0  0  0  0  0  0  0
    0.2631   -1.4387    0.4140 H   0  0  0  0  0  0  0  0  0  0  0  0
    2.1095    2.1951    1.8028 H   0  0  0  0  0  0  0  0  0  0  0  0
   -2.1245    1.6163    2.2709 H   0  0  0  0  0  0  0  0  0  0  0  0
    0.7809    3.5852    3.3750 H   0  0  0  0  0  0  0  0  0  0  0  0
   -0.9541    3.3907    3.5003 H   0  0  0  0  0  0  0  0  0  0  0  0
    0.5022    4.5094    1.0348 H   0  0  0  0  0  0  0  0  0  0  0  0
   -1.2418    4.3246    1.1819 H   0  0  0  0  0  0  0  0  0  0  0  0
   -1.2384    5.8878    3.1544 H   0  0  0  0  0  0  0  0  0  0  0  0
    0.5127    6.0831    2.9881 H   0  0  0  0  0  0  0  0  0  0  0  0
   -0.6283    7.8352    1.9093 H   0  0  0  0  0  0  0  0  0  0  0  0
    0.1449    6.9415    0.7822 H   0  0  0  0  0  0  0  0  0  0  0  0
    2.9766   -1.0251    1.1804 H   0  0  0  0  0  0  0  0  0  0  0  0
    3.4480    0.6115    0.7793 H   0  0  0  0  0  0  0  0  0  0  0  0
    2.4011    0.3658   -1.5110 H   0  0  0  0  0  0  0  0  0  0  0  0
    2.0331   -1.3120   -1.1645 H   0  0  0  0  0  0  0  0  0  0  0  0
    7.6738   -1.7213   -2.4577 H   0  0  0  0  0  0  0  0  0  0  0  0
    3.9627   -2.9171   -0.6339 H   0  0  0  0  0  0  0  0  0  0  0  0
    7.0997   -4.1821   -2.1059 H   0  0  0  0  0  0  0  0  0  0  0  0
    5.6652   -4.6149   -1.1754 H   0  0  0  0  0  0  0  0  0  0  0  0
    7.0455   -3.8532   -0.3556 H   0  0  0  0  0  0  0  0  0  0  0  0
    6.2371    1.5537   -3.0110 H   0  0  0  0  0  0  0  0  0  0  0  0
    7.1965    0.4632   -3.8521 H   0  0  0  0  0  0  0  0  0  0  0  0
  1  2  1  0
  2  3  2  0
  3  4  1  0
  4  5  2  0
  5  6  1  0
  6  7  2  0
  6  8  1  0
  4  9  1  0
  9 10  1  0
 10 11  1  0
 11 12  2  0
 12 13  1  0
 13 14  2  0
 14 15  1  0
 15 16  2  0
 15 17  1  0
 17 18  1  0
 18 19  1  0
 19 20  1  0
 13 21  1  0
 21 22  1  0
 22 23  1  0
 23 24  2  0
 24 25  1  0
 25 26  2  0
 26 27  1  0
 27 28  2  0
 27 29  1  0
 25 30  1  0
  7  2  1  0
 16 11  1  0
 28 23  1  0
  1 31  1  0
  1 32  1  0
  1 33  1  0
  3 34  1  0
  7 35  1  0
  8 36  1  0
  8 37  1  0
  9 38  1  0
  9 39  1  0
 10 40  1  0
 10 41  1  0
 12 42  1  0
 14 43  1  0
 16 44  1  0
 17 45  1  0
 17 46  1  0
 18 47  1  0
 18 48  1  0
 19 49  1  0
 19 50  1  0
 20 51  1  0
 20 52  1  0
 21 53  1  0
 21 54  1  0
 22 55  1  0
 22 56  1  0
 26 57  1  0
 28 58  1  0
 29 59  1  0
 29 60  1  0
 29 61  1  0
 30 62  1  0
 30 63  1  0
M  END
$$$$
