
     RDKit          3D

 54 53  0  0  0  0  0  0  0  0999 V2000
   -2.7571   -1.6232    1.7245 C   0  0  0  0  0  0  0  0  0  0  0  0
   -1.5426   -0.9908    1.4439 C   0  0  0  0  0  0  0  0  0  0  0  0
   -1.4118   -0.1572    0.3241 C   0  0  0  0  0  0  0  0  0  0  0  0
   -2.5323    0.0330   -0.5007 C   0  0  0  0  0  0  0  0  0  0  0  0
   -3.7595   -0.5971   -0.2312 C   0  0  0  0  0  0  0  0  0  0  0  0
   -3.8581   -1.4302    0.8908 C   0  0  0  0  0  0  0  0  0  0  0  0
   -4.9352   -0.3731   -1.1490 C   0  0  0  0  0  0  0  0  0  0  0  0
   -4.7074   -0.8322   -2.4106 F   0  0  0  0  0  0  0  0  0  0  0  0
   -6.0745   -0.9940   -0.7300 F   0  0  0  0  0  0  0  0  0  0  0  0
   -5.2589    0.9430   -1.2794 F   0  0  0  0  0  0  0  0  0  0  0  0
   -0.1580    0.5276   -0.0099 C   0  0  0  0  0  0  0  0  0  0  0  0
   -0.0261    1.5216   -0.8702 N   0  0  0  0  0  0  0  0  0  0  0  0
    1.3017    1.8556   -0.8813 C   0  0  0  0  0  0  0  0  0  0  0  0
    2.0144    1.0484   -0.0263 C   0  0  0  0  0  0  0  0  0  0  0  0
    1.0736    0.2099    0.5185 N   0  0  0  0  0  0  0  0  0  0  0  0
    3.4606    0.9924    0.3170 C   0  0  0  0  0  0  0  0  0  0  0  0
    4.2143   -0.0215   -0.5540 C   0  0  0  0  0  0  0  0  0  0  0  0
    5.6387   -0.0768   -0.2297 N   0  0  0  0  0  0  0  0  0  0  0  0
    0.7135   -0.5664   -0.5055 C   0  0  0  0  0  0  0  0  0  0  0  0
   -0.5752   -0.9325   -0.5104 C   0  0  0  0  0  0  0  0  0  0  0  0
   -1.6070   -0.3743    0.3665 C   0  0  0  0  0  0  0  0  0  0  0  0
   -2.4280   -1.0280    0.9812 O   0  0  0  0  0  0  0  0  0  0  0  0
   -1.6320    0.9652    0.3203 O   0  0  0  0  0  0  0  0  0  0  0  0
    1.2983    0.3804    0.4530 C   0  0  0  0  0  0  0  0  0  0  0  0
    0.8921    0.6774    1.5582 O   0  0  0  0  0  0  0  0  0  0  0  0
    2.4373    0.8831   -0.0499 O   0  0  0  0  0  0  0  0  0  0  0  0
   -0.6596    0.3579    0.5749 C   0  0  0  0  0  0  0  0  0  0  0  0
    0.4918   -0.1768    0.1476 C   0  0  0  0  0  0  0  0  0  0  0  0
    1.6860   -0.0554    0.9855 C   0  0  0  0  0  0  0  0  0  0  0  0
    1.7751    0.4931    2.0665 O   0  0  0  0  0  0  0  0  0  0  0  0
    2.7308   -0.6519    0.3924 O   0  0  0  0  0  0  0  0  0  0  0  0
   -1.9059    0.2880   -0.1918 C   0  0  0  0  0  0  0  0  0  0  0  0
   -2.9657    0.7636    0.1717 O   0  0  0  0  0  0  0  0  0  0  0  0
   -1.7881   -0.3595   -1.3602 O   0  0  0  0  0  0  0  0  0  0  0  0
   -2.8462   -2.2642    2.5989 H   0  0  0  0  0  0  0  0  0  0  0  0
   -0.7141   -1.1530    2.1270 H   0  0  0  0  0  0  0  0  0  0  0  0
   -2.4459    0.6850   -1.3724 H   0  0  0  0  0  0  0  0  0  0  0  0
   -4.7972   -1.9302    1.1238 H   0  0  0  0  0  0  0  0  0  0  0  0
    1.6721    2.6567   -1.5078 H   0  0  0  0  0  0  0  0  0  0  0  0
    1.2511   -0.5305    1.1806 H   0  0  0  0  0  0  0  0  0  0  0  0
    3.5757    0.7327    1.3769 H   0  0  0  0  0  0  0  0  0  0  0  0
    3.9002    1.9897    0.1890 H   0  0  0  0  0  0  0  0  0  0  0  0
    3.7875   -1.0226   -0.4220 H   0  0  0  0  0  0  0  0  0  0  0  0
    4.1038    0.2310   -1.6149 H   0  0  0  0  0  0  0  0  0  0  0  0
    6.0652    0.8330   -0.4044 H   0  0  0  0  0  0  0  0  0  0  0  0
    5.7658   -0.2630    0.7639 H   0  0  0  0  0  0  0  0  0  0  0  0
    1.4062   -1.0067   -1.2134 H   0  0  0  0  0  0  0  0  0  0  0  0
   -0.9270   -1.7053   -1.1829 H   0  0  0  0  0  0  0  0  0  0  0  0
   -2.3281    1.2129    0.9629 H   0  0  0  0  0  0  0  0  0  0  0  0
    2.7498    1.4942    0.6498 H   0  0  0  0  0  0  0  0  0  0  0  0
   -0.7353    0.8789    1.5242 H   0  0  0  0  0  0  0  0  0  0  0  0
    0.5907   -0.7006   -0.7950 H   0  0  0  0  0  0  0  0  0  0  0  0
    3.4702   -0.5184    1.0216 H   0  0  0  0  0  0  0  0  0  0  0  0
   -2.6902   -0.3188   -1.7414 H   0  0  0  0  0  0  0  0  0  0  0  0
  1  2  2  0
  2  3  1  0
  3  4  2  0
  4  5  1  0
  5  6  2  0
  5  7  1  0
  7  8  1  0
  7  9  1  0
  7 10  1  0
  3 11  1  0
 11 12  2  0
 12 13  1  0
 13 14  2  0
 14 15  1  0
 14 16  1  0
 16 17  1  0
 17 18  1  0
 19 20  2  3
 20 21  1  0
 21 22  2  0
 21 23  1  0
 19 24  1  0
 24 25  2  0
 24 26  1  0
 27 28  2  3
 28 29  1  0
 29 30  2  0
 29 31  1  0
 27 32  1  0
 32 33  2  0
 32 34  1  0
  6  1  1  0
 15 11  1  0
  1 35  1  0
  2 36  1  0
  4 37  1  0
  6 38  1  0
 13 39  1  0
 15 40  1  0
 16 41  1  0
 16 42  1  0
 17 43  1  0
 17 44  1  0
 18 45  1  0
 18 46  1  0
 19 47  1  0
 20 48  1  0
 23 49  1  0
 26 50  1  0
 27 51  1  0
 28 52  1  0
 31 53  1  0
 34 54  1  0
M  END
$$$$
