
     RDKit          3D

123122  0  0  0  0  0  0  0  0999 V2000
    6.8108   -3.5944    1.2544 C   0  0  0  0  0  0  0  0  0  0  0  0
    7.5500   -2.3927    1.7790 C   0  0  0  0  0  0  0  0  0  0  0  0
    8.5777   -2.4948    2.4381 O   0  0  0  0  0  0  0  0  0  0  0  0
    6.9616   -1.1949    1.4626 N   0  0  0  0  0  0  0  0  0  0  0  0
    7.4786    0.0790    1.9376 C   0  0  1  0  0  0  0  0  0  0  0  0
    8.7244    0.5077    1.1412 C   0  0  0  0  0  0  0  0  0  0  0  0
    9.3673    1.7781    1.6977 C   0  0  0  0  0  0  0  0  0  0  0  0
   10.5226    2.2196    0.8429 C   0  0  0  0  0  0  0  0  0  0  0  0
   10.7507    1.9008   -0.3110 O   0  0  0  0  0  0  0  0  0  0  0  0
   11.3216    3.0953    1.4843 O   0  0  0  0  0  0  0  0  0  0  0  0
    6.3154    1.0818    1.7961 C   0  0  0  0  0  0  0  0  0  0  0  0
    5.9259    1.7913    2.8668 C   0  0  0  0  0  0  0  0  0  0  0  0
    5.6959    1.1442    0.5451 N   0  0  0  0  0  0  0  0  0  0  0  0
    4.9077    2.2849    0.0163 C   0  0  1  0  0  0  0  0  0  0  0  0
    5.8607    3.3584   -0.5176 C   0  0  0  0  0  0  0  0  0  0  0  0
    5.1885    4.7183   -0.6932 C   0  0  0  0  0  0  0  0  0  0  0  0
    6.2051    5.7595   -1.0598 C   0  0  0  0  0  0  0  0  0  0  0  0
    6.6207    6.6470   -0.3333 O   0  0  0  0  0  0  0  0  0  0  0  0
    6.6597    5.6252   -2.3183 O   0  0  0  0  0  0  0  0  0  0  0  0
    3.9462    1.7559   -1.0818 C   0  0  0  0  0  0  0  0  0  0  0  0
    3.5427    2.4235   -2.0266 O   0  0  0  0  0  0  0  0  0  0  0  0
    3.5408    0.4502   -0.8531 N   0  0  0  0  0  0  0  0  0  0  0  0
    2.3169   -0.0733   -1.4563 C   0  0  1  0  0  0  0  0  0  0  0  0
    2.4590   -1.5717   -1.7397 C   0  0  0  0  0  0  0  0  0  0  0  0
    3.4651   -1.9037   -2.8451 C   0  0  0  0  0  0  0  0  0  0  0  0
    2.8660   -1.4648   -4.5116 S   0  0  0  0  0  0  0  0  0  0  0  0
    3.8289    0.0463   -4.7974 C   0  0  0  0  0  0  0  0  0  0  0  0
    1.1695    0.2196   -0.4581 C   0  0  0  0  0  0  0  0  0  0  0  0
    1.3632    0.7514    0.6339 O   0  0  0  0  0  0  0  0  0  0  0  0
   -0.0883   -0.1331   -0.8879 N   0  0  0  0  0  0  0  0  0  0  0  0
   -1.2658    0.0380   -0.0430 C   0  0  1  0  0  0  0  0  0  0  0  0
   -1.9960    1.3574   -0.3439 C   0  0  0  0  0  0  0  0  0  0  0  0
   -2.3623    1.5771   -1.8148 C   0  0  0  0  0  0  0  0  0  0  0  0
   -3.5436    0.7555   -2.2834 C   0  0  0  0  0  0  0  0  0  0  0  0
   -4.3926    0.2772   -1.5375 O   0  0  0  0  0  0  0  0  0  0  0  0
   -3.6466    0.6296   -3.6342 N   0  0  0  0  0  0  0  0  0  0  0  0
   -2.1550   -1.2103   -0.1739 C   0  0  0  0  0  0  0  0  0  0  0  0
   -1.9683   -2.0456   -1.0583 O   0  0  0  0  0  0  0  0  0  0  0  0
   -3.1594   -1.2953    0.7605 N   0  0  0  0  0  0  0  0  0  0  0  0
   -4.0500   -2.4605    0.8599 C   0  0  1  0  0  0  0  0  0  0  0  0
   -3.4615   -3.4488    1.8807 C   0  0  0  0  0  0  0  0  0  0  0  0
   -3.8542   -4.9210    1.6874 C   0  0  0  0  0  0  0  0  0  0  0  0
   -5.1122   -5.3423    2.4444 C   0  0  0  0  0  0  0  0  0  0  0  0
   -5.0665   -6.7805    2.7027 N   0  0  0  0  0  0  0  0  0  0  0  0
   -5.5976   -7.6091    1.8903 C   0  0  0  0  0  0  0  0  0  0  0  0
   -6.2480   -7.4117    0.7259 N   0  0  0  0  0  0  0  0  0  0  0  0
   -5.5481   -8.9323    2.1730 N   0  0  0  0  0  0  0  0  0  0  0  0
   -5.4667   -1.9562    1.2232 C   0  0  0  0  0  0  0  0  0  0  0  0
   -6.2858   -2.6346    1.8324 O   0  0  0  0  0  0  0  0  0  0  0  0
   -5.7710   -0.7055    0.7101 N   0  0  0  0  0  0  0  0  0  0  0  0
   -7.1423   -0.1881    0.7036 C   0  0  1  0  0  0  0  0  0  0  0  0
   -7.2231    1.2590    1.2196 C   0  0  0  0  0  0  0  0  0  0  0  0
   -6.2260    2.2822    0.6515 C   0  0  0  0  0  0  0  0  0  0  0  0
   -6.4929    2.7494   -0.7766 C   0  0  0  0  0  0  0  0  0  0  0  0
   -7.7883    3.4118   -0.8735 N   0  0  0  0  0  0  0  0  0  0  0  0
   -7.8738    4.6776   -0.7312 C   0  0  0  0  0  0  0  0  0  0  0  0
   -6.9150    5.5803   -0.4516 N   0  0  0  0  0  0  0  0  0  0  0  0
   -9.0767    5.2726   -0.8882 N   0  0  0  0  0  0  0  0  0  0  0  0
   -7.8638   -0.3835   -0.6477 C   0  0  0  0  0  0  0  0  0  0  0  0
   -9.0727   -0.2268   -0.7930 O   0  0  0  0  0  0  0  0  0  0  0  0
   -7.0883   -0.7110   -1.7255 N   0  0  0  0  0  0  0  0  0  0  0  0
    7.5266   -4.2868    0.8043 H   0  0  0  0  0  0  0  0  0  0  0  0
    6.0798   -3.3172    0.4893 H   0  0  0  0  0  0  0  0  0  0  0  0
    6.2914   -4.0852    2.0814 H   0  0  0  0  0  0  0  0  0  0  0  0
    6.0637   -1.1805    0.9946 H   0  0  0  0  0  0  0  0  0  0  0  0
    7.7550   -0.0523    2.9905 H   0  0  0  0  0  0  0  0  0  0  0  0
    8.4726    0.6459    0.0832 H   0  0  0  0  0  0  0  0  0  0  0  0
    9.4721   -0.2970    1.1582 H   0  0  0  0  0  0  0  0  0  0  0  0
    8.6521    2.6049    1.7290 H   0  0  0  0  0  0  0  0  0  0  0  0
    9.7331    1.5844    2.7114 H   0  0  0  0  0  0  0  0  0  0  0  0
   12.0156    3.3142    0.8281 H   0  0  0  0  0  0  0  0  0  0  0  0
    5.0926    2.4805    2.8414 H   0  0  0  0  0  0  0  0  0  0  0  0
    6.4256    1.6859    3.8272 H   0  0  0  0  0  0  0  0  0  0  0  0
    6.2665    0.7201   -0.1893 H   0  0  0  0  0  0  0  0  0  0  0  0
    4.2630    2.6912    0.8036 H   0  0  0  0  0  0  0  0  0  0  0  0
    6.2980    3.0319   -1.4704 H   0  0  0  0  0  0  0  0  0  0  0  0
    6.7067    3.4822    0.1716 H   0  0  0  0  0  0  0  0  0  0  0  0
    4.7086    5.0338    0.2427 H   0  0  0  0  0  0  0  0  0  0  0  0
    4.4093    4.7075   -1.4626 H   0  0  0  0  0  0  0  0  0  0  0  0
    7.3096    6.3522   -2.4224 H   0  0  0  0  0  0  0  0  0  0  0  0
    3.7233    0.1653    0.1070 H   0  0  0  0  0  0  0  0  0  0  0  0
    2.0801    0.4864   -2.3646 H   0  0  0  0  0  0  0  0  0  0  0  0
    1.4924   -2.0225   -1.9849 H   0  0  0  0  0  0  0  0  0  0  0  0
    2.7903   -2.0733   -0.8190 H   0  0  0  0  0  0  0  0  0  0  0  0
    3.6156   -2.9894   -2.8526 H   0  0  0  0  0  0  0  0  0  0  0  0
    4.4438   -1.4550   -2.6491 H   0  0  0  0  0  0  0  0  0  0  0  0
    3.7312    0.3373   -5.8463 H   0  0  0  0  0  0  0  0  0  0  0  0
    4.8876   -0.1191   -4.5828 H   0  0  0  0  0  0  0  0  0  0  0  0
    3.4506    0.8642   -4.1843 H   0  0  0  0  0  0  0  0  0  0  0  0
   -0.2027   -0.7464   -1.6907 H   0  0  0  0  0  0  0  0  0  0  0  0
   -0.9357    0.0647    1.0054 H   0  0  0  0  0  0  0  0  0  0  0  0
   -2.8916    1.4424    0.2826 H   0  0  0  0  0  0  0  0  0  0  0  0
   -1.3342    2.1826   -0.0460 H   0  0  0  0  0  0  0  0  0  0  0  0
   -1.5015    1.3932   -2.4662 H   0  0  0  0  0  0  0  0  0  0  0  0
   -2.6465    2.6294   -1.9468 H   0  0  0  0  0  0  0  0  0  0  0  0
   -2.9111    0.9172   -4.2662 H   0  0  0  0  0  0  0  0  0  0  0  0
   -4.3812    0.0457   -4.0119 H   0  0  0  0  0  0  0  0  0  0  0  0
   -3.2028   -0.6206    1.5151 H   0  0  0  0  0  0  0  0  0  0  0  0
   -4.1153   -2.9293   -0.1286 H   0  0  0  0  0  0  0  0  0  0  0  0
   -3.6830   -3.1218    2.9041 H   0  0  0  0  0  0  0  0  0  0  0  0
   -2.3660   -3.4148    1.7919 H   0  0  0  0  0  0  0  0  0  0  0  0
   -3.0142   -5.5285    2.0490 H   0  0  0  0  0  0  0  0  0  0  0  0
   -3.9573   -5.1600    0.6224 H   0  0  0  0  0  0  0  0  0  0  0  0
   -5.1542   -4.8406    3.4186 H   0  0  0  0  0  0  0  0  0  0  0  0
   -6.0185   -5.0477    1.9119 H   0  0  0  0  0  0  0  0  0  0  0  0
   -6.5731   -6.4638    0.5895 H   0  0  0  0  0  0  0  0  0  0  0  0
   -7.0127   -8.0671    0.6160 H   0  0  0  0  0  0  0  0  0  0  0  0
   -5.2145   -9.4826    1.3911 H   0  0  0  0  0  0  0  0  0  0  0  0
   -4.9620   -9.0814    2.9921 H   0  0  0  0  0  0  0  0  0  0  0  0
   -5.1275   -0.3487    0.0038 H   0  0  0  0  0  0  0  0  0  0  0  0
   -7.7288   -0.7995    1.4015 H   0  0  0  0  0  0  0  0  0  0  0  0
   -8.2474    1.6364    1.1059 H   0  0  0  0  0  0  0  0  0  0  0  0
   -7.0393    1.2215    2.3023 H   0  0  0  0  0  0  0  0  0  0  0  0
   -5.2094    1.8806    0.7125 H   0  0  0  0  0  0  0  0  0  0  0  0
   -6.2430    3.1614    1.3101 H   0  0  0  0  0  0  0  0  0  0  0  0
   -6.4924    1.9038   -1.4649 H   0  0  0  0  0  0  0  0  0  0  0  0
   -5.6762    3.3954   -1.1167 H   0  0  0  0  0  0  0  0  0  0  0  0
   -7.1970    6.5223   -0.2318 H   0  0  0  0  0  0  0  0  0  0  0  0
   -6.0579    5.2611   -0.0267 H   0  0  0  0  0  0  0  0  0  0  0  0
   -9.7830    4.5512   -1.0271 H   0  0  0  0  0  0  0  0  0  0  0  0
   -9.3463    5.8595   -0.1122 H   0  0  0  0  0  0  0  0  0  0  0  0
   -6.1033   -0.4660   -1.7281 H   0  0  0  0  0  0  0  0  0  0  0  0
   -7.5680   -0.6786   -2.6156 H   0  0  0  0  0  0  0  0  0  0  0  0
  1  2  1  0
  2  3  2  0
  2  4  1  0
  4  5  1  0
  5  6  1  0
  6  7  1  0
  7  8  1  0
  8  9  2  0
  8 10  1  0
  5 11  1  0
 11 12  2  3
 11 13  1  0
 13 14  1  0
 14 15  1  0
 15 16  1  0
 16 17  1  0
 17 18  2  0
 17 19  1  0
 14 20  1  0
 20 21  2  0
 20 22  1  0
 22 23  1  0
 23 24  1  0
 24 25  1  0
 25 26  1  0
 26 27  1  0
 23 28  1  0
 28 29  2  0
 28 30  1  0
 30 31  1  0
 31 32  1  0
 32 33  1  0
 33 34  1  0
 34 35  2  0
 34 36  1  0
 31 37  1  0
 37 38  2  0
 37 39  1  0
 39 40  1  0
 40 41  1  0
 41 42  1  0
 42 43  1  0
 43 44  1  0
 44 45  2  3
 45 46  1  0
 45 47  1  0
 40 48  1  0
 48 49  2  0
 48 50  1  0
 50 51  1  0
 51 52  1  0
 52 53  1  0
 53 54  1  0
 54 55  1  0
 55 56  2  3
 56 57  1  0
 56 58  1  0
 51 59  1  0
 59 60  2  0
 59 61  1  0
  1 62  1  0
  1 63  1  0
  1 64  1  0
  4 65  1  0
  5 66  1  1
  6 67  1  0
  6 68  1  0
  7 69  1  0
  7 70  1  0
 10 71  1  0
 12 72  1  0
 12 73  1  0
 13 74  1  0
 14 75  1  1
 15 76  1  0
 15 77  1  0
 16 78  1  0
 16 79  1  0
 19 80  1  0
 22 81  1  0
 23 82  1  6
 24 83  1  0
 24 84  1  0
 25 85  1  0
 25 86  1  0
 27 87  1  0
 27 88  1  0
 27 89  1  0
 30 90  1  0
 31 91  1  1
 32 92  1  0
 32 93  1  0
 33 94  1  0
 33 95  1  0
 36 96  1  0
 36 97  1  0
 39 98  1  0
 40 99  1  6
 41100  1  0
 41101  1  0
 42102  1  0
 42103  1  0
 43104  1  0
 43105  1  0
 46106  1  0
 46107  1  0
 47108  1  0
 47109  1  0
 50110  1  0
 51111  1  1
 52112  1  0
 52113  1  0
 53114  1  0
 53115  1  0
 54116  1  0
 54117  1  0
 57118  1  0
 57119  1  0
 58120  1  0
 58121  1  0
 61122  1  0
 61123  1  0
M  END
$$$$
