
     RDKit          3D

 51 55  0  0  0  0  0  0  0  0999 V2000
   -3.0975   -1.8142   -0.1473 C   0  0  0  0  0  0  0  0  0  0  0  0
   -3.1128   -0.3952    0.1548 N   0  0  0  0  0  0  0  0  0  0  0  0
   -1.9048    0.3839    0.4357 C   0  0  0  0  0  0  0  0  0  0  0  0
   -0.7989   -0.3505    1.2023 C   0  0  0  0  0  0  0  0  0  0  0  0
    0.0541   -1.0182    0.1258 C   0  0  2  0  0  0  0  0  0  0  0  0
    1.5473   -1.1743    0.4404 C   0  0  0  0  0  0  0  0  0  0  0  0
    2.2103   -0.1302   -0.3277 N   0  0  0  0  0  0  0  0  0  0  0  0
    1.2559    0.7683   -0.9433 C   0  0  0  0  0  0  0  0  0  0  0  0
   -0.0122   -0.0541   -1.0581 C   0  0  2  0  0  0  0  0  0  0  0  0
   -1.2695    0.7927   -0.9009 C   0  0  0  0  0  0  0  0  0  0  0  0
    3.5419   -0.0680   -0.6962 C   0  0  0  0  0  0  0  0  0  0  0  0
    3.9294    0.7083   -1.5687 O   0  0  0  0  0  0  0  0  0  0  0  0
    4.3638   -0.9175    0.0191 N   0  0  0  0  0  0  0  0  0  0  0  0
    5.6952   -0.8815   -0.3308 C   0  0  0  0  0  0  0  0  0  0  0  0
    6.6887   -0.5732    0.4638 N   0  0  0  0  0  0  0  0  0  0  0  0
    7.8399   -0.5801   -0.3145 C   0  0  0  0  0  0  0  0  0  0  0  0
    7.8083   -1.0439   -1.5633 N   0  0  0  0  0  0  0  0  0  0  0  0
    6.1956   -1.3605   -1.8971 S   0  0  0  0  0  0  0  0  0  0  0  0
    9.0526   -0.1204    0.0747 O   0  0  0  0  0  0  0  0  0  0  0  0
    8.9635    0.6844    1.2294 C   0  0  0  0  0  0  0  0  0  0  0  0
   -4.3070    0.1080    0.6494 C   0  0  0  0  0  0  0  0  0  0  0  0
   -4.3791    0.5561    1.9274 N   0  0  0  0  0  0  0  0  0  0  0  0
   -5.5475    1.0681    2.3683 C   0  0  0  0  0  0  0  0  0  0  0  0
   -6.6964    1.2301    1.6933 N   0  0  0  0  0  0  0  0  0  0  0  0
   -6.5793    0.8085    0.4288 C   0  0  0  0  0  0  0  0  0  0  0  0
   -5.4533    0.2440   -0.1590 C   0  0  0  0  0  0  0  0  0  0  0  0
   -5.7942   -0.0140   -1.5187 C   0  0  0  0  0  0  0  0  0  0  0  0
   -7.0954    0.3885   -1.7144 C   0  0  0  0  0  0  0  0  0  0  0  0
   -7.5615    0.8796   -0.5205 N   0  0  0  0  0  0  0  0  0  0  0  0
   -2.7087   -2.3946    0.6956 H   0  0  0  0  0  0  0  0  0  0  0  0
   -4.0949   -2.2067   -0.3782 H   0  0  0  0  0  0  0  0  0  0  0  0
   -2.4792   -2.0077   -1.0273 H   0  0  0  0  0  0  0  0  0  0  0  0
   -2.1599    1.2998    0.9871 H   0  0  0  0  0  0  0  0  0  0  0  0
   -1.1762   -1.0647    1.9411 H   0  0  0  0  0  0  0  0  0  0  0  0
   -0.1931    0.3877    1.7455 H   0  0  0  0  0  0  0  0  0  0  0  0
   -0.3749   -1.9948   -0.1277 H   0  0  0  0  0  0  0  0  0  0  0  0
    1.9195   -2.1472    0.1066 H   0  0  0  0  0  0  0  0  0  0  0  0
    1.7691   -1.0460    1.5053 H   0  0  0  0  0  0  0  0  0  0  0  0
    1.5911    1.1418   -1.9131 H   0  0  0  0  0  0  0  0  0  0  0  0
    1.1476    1.6224   -0.2636 H   0  0  0  0  0  0  0  0  0  0  0  0
   -0.0119   -0.6077   -2.0061 H   0  0  0  0  0  0  0  0  0  0  0  0
   -1.9453    0.6422   -1.7482 H   0  0  0  0  0  0  0  0  0  0  0  0
   -1.0260    1.8638   -0.8876 H   0  0  0  0  0  0  0  0  0  0  0  0
    4.2239   -0.8147    1.0182 H   0  0  0  0  0  0  0  0  0  0  0  0
    8.7994    0.0588    2.1180 H   0  0  0  0  0  0  0  0  0  0  0  0
    8.1682    1.4431    1.1445 H   0  0  0  0  0  0  0  0  0  0  0  0
    9.9161    1.2124    1.3551 H   0  0  0  0  0  0  0  0  0  0  0  0
   -5.5590    1.3943    3.4028 H   0  0  0  0  0  0  0  0  0  0  0  0
   -5.1377   -0.4336   -2.2746 H   0  0  0  0  0  0  0  0  0  0  0  0
   -7.7255    0.3794   -2.5970 H   0  0  0  0  0  0  0  0  0  0  0  0
   -8.4803    1.2637   -0.3491 H   0  0  0  0  0  0  0  0  0  0  0  0
  1  2  1  0
  2  3  1  0
  3  4  1  0
  4  5  1  0
  5  6  1  0
  6  7  1  0
  7  8  1  0
  8  9  1  0
  9 10  1  0
  7 11  1  0
 11 12  2  0
 11 13  1  0
 13 14  1  0
 14 15  2  0
 15 16  1  0
 16 17  2  0
 17 18  1  0
 16 19  1  0
 19 20  1  0
  2 21  1  0
 21 22  2  0
 22 23  1  0
 23 24  2  0
 24 25  1  0
 25 26  2  0
 26 27  1  0
 27 28  2  0
 28 29  1  0
 10  3  1  0
  9  5  1  0
 18 14  1  0
 26 21  1  0
 29 25  1  0
  1 30  1  0
  1 31  1  0
  1 32  1  0
  3 33  1  0
  4 34  1  0
  4 35  1  0
  5 36  1  6
  6 37  1  0
  6 38  1  0
  8 39  1  0
  8 40  1  0
  9 41  1  6
 10 42  1  0
 10 43  1  0
 13 44  1  0
 20 45  1  0
 20 46  1  0
 20 47  1  0
 23 48  1  0
 27 49  1  0
 28 50  1  0
 29 51  1  0
M  END
$$$$
