
     RDKit          3D

 28 29  0  0  0  0  0  0  0  0999 V2000
    5.4764    0.3547    0.6145 C   0  0  0  0  0  0  0  0  0  0  0  0
    4.5467    0.1028    1.6230 C   0  0  0  0  0  0  0  0  0  0  0  0
    3.2102   -0.1443    1.2992 C   0  0  0  0  0  0  0  0  0  0  0  0
    2.8003   -0.1430   -0.0416 C   0  0  0  0  0  0  0  0  0  0  0  0
    3.7398    0.1187   -1.0488 C   0  0  0  0  0  0  0  0  0  0  0  0
    5.0743    0.3645   -0.7203 C   0  0  0  0  0  0  0  0  0  0  0  0
    1.3921   -0.3963   -0.4466 C   0  0  0  0  0  0  0  0  0  0  0  0
    0.9690   -0.2016   -1.5771 O   0  0  0  0  0  0  0  0  0  0  0  0
    0.6830   -0.8913    0.6049 O   0  0  0  0  0  0  0  0  0  0  0  0
   -0.7007   -1.0402    0.1491 O   0  0  0  0  0  0  0  0  0  0  0  0
   -1.3955    0.0182    0.6496 C   0  0  0  0  0  0  0  0  0  0  0  0
   -0.9626    0.8748    1.4071 O   0  0  0  0  0  0  0  0  0  0  0  0
   -2.8017   -0.0174    0.1676 C   0  0  0  0  0  0  0  0  0  0  0  0
   -3.7308    0.8363    0.7790 C   0  0  0  0  0  0  0  0  0  0  0  0
   -5.0630    0.8419    0.3615 C   0  0  0  0  0  0  0  0  0  0  0  0
   -5.4733   -0.0007   -0.6706 C   0  0  0  0  0  0  0  0  0  0  0  0
   -4.5538   -0.8474   -1.2893 C   0  0  0  0  0  0  0  0  0  0  0  0
   -3.2197   -0.8571   -0.8746 C   0  0  0  0  0  0  0  0  0  0  0  0
    6.5155    0.5488    0.8700 H   0  0  0  0  0  0  0  0  0  0  0  0
    4.8616    0.1039    2.6640 H   0  0  0  0  0  0  0  0  0  0  0  0
    2.5022   -0.3237    2.1051 H   0  0  0  0  0  0  0  0  0  0  0  0
    3.4354    0.1326   -2.0939 H   0  0  0  0  0  0  0  0  0  0  0  0
    5.7986    0.5663   -1.5058 H   0  0  0  0  0  0  0  0  0  0  0  0
   -3.4199    1.5010    1.5831 H   0  0  0  0  0  0  0  0  0  0  0  0
   -5.7791    1.5058    0.8398 H   0  0  0  0  0  0  0  0  0  0  0  0
   -6.5105    0.0061   -0.9972 H   0  0  0  0  0  0  0  0  0  0  0  0
   -4.8749   -1.4977   -2.0997 H   0  0  0  0  0  0  0  0  0  0  0  0
   -2.5196   -1.5161   -1.3829 H   0  0  0  0  0  0  0  0  0  0  0  0
  1  2  2  0
  2  3  1  0
  3  4  2  0
  4  5  1  0
  5  6  2  0
  4  7  1  0
  7  8  2  0
  7  9  1  0
  9 10  1  0
 10 11  1  0
 11 12  2  0
 11 13  1  0
 13 14  2  0
 14 15  1  0
 15 16  2  0
 16 17  1  0
 17 18  2  0
  6  1  1  0
 18 13  1  0
  1 19  1  0
  2 20  1  0
  3 21  1  0
  5 22  1  0
  6 23  1  0
 14 24  1  0
 15 25  1  0
 16 26  1  0
 17 27  1  0
 18 28  1  0
M  END
$$$$
