
     RDKit          3D

 27 28  0  0  0  0  0  0  0  0999 V2000
    4.4418    0.9729    0.4645 C   0  0  0  0  0  0  0  0  0  0  0  0
    3.9284   -0.0536    1.2550 C   0  0  0  0  0  0  0  0  0  0  0  0
    2.7937   -0.7536    0.8418 C   0  0  0  0  0  0  0  0  0  0  0  0
    2.1668   -0.4379   -0.3719 C   0  0  0  0  0  0  0  0  0  0  0  0
    2.6844    0.6051   -1.1528 C   0  0  0  0  0  0  0  0  0  0  0  0
    3.8192    1.3039   -0.7376 C   0  0  0  0  0  0  0  0  0  0  0  0
    0.9288   -1.1770   -0.8075 C   0  0  0  0  0  0  0  0  0  0  0  0
   -0.2011   -0.4825   -0.2724 O   0  0  0  0  0  0  0  0  0  0  0  0
   -1.3898   -1.0438   -0.5895 C   0  0  0  0  0  0  0  0  0  0  0  0
   -1.5501   -2.0480   -1.2648 O   0  0  0  0  0  0  0  0  0  0  0  0
   -2.5052   -0.2708   -0.0017 C   0  0  0  0  0  0  0  0  0  0  0  0
   -2.3073    0.8707    0.7650 C   0  0  0  0  0  0  0  0  0  0  0  0
   -3.3150    1.5959    1.3143 N   0  0  0  0  0  0  0  0  0  0  0  0
   -4.5737    1.1606    1.0869 C   0  0  0  0  0  0  0  0  0  0  0  0
   -4.8740    0.0351    0.3365 C   0  0  0  0  0  0  0  0  0  0  0  0
   -3.8209   -0.6911   -0.2159 C   0  0  0  0  0  0  0  0  0  0  0  0
    5.3242    1.5188    0.7880 H   0  0  0  0  0  0  0  0  0  0  0  0
    4.4097   -0.3065    2.1962 H   0  0  0  0  0  0  0  0  0  0  0  0
    2.3988   -1.5458    1.4741 H   0  0  0  0  0  0  0  0  0  0  0  0
    2.2035    0.8812   -2.0886 H   0  0  0  0  0  0  0  0  0  0  0  0
    4.2152    2.1095   -1.3504 H   0  0  0  0  0  0  0  0  0  0  0  0
    0.8736   -1.2052   -1.9028 H   0  0  0  0  0  0  0  0  0  0  0  0
    0.9543   -2.2074   -0.4317 H   0  0  0  0  0  0  0  0  0  0  0  0
   -1.3142    1.2591    0.9751 H   0  0  0  0  0  0  0  0  0  0  0  0
   -5.3599    1.7598    1.5382 H   0  0  0  0  0  0  0  0  0  0  0  0
   -5.9036   -0.2704    0.1849 H   0  0  0  0  0  0  0  0  0  0  0  0
   -4.0275   -1.5790   -0.8095 H   0  0  0  0  0  0  0  0  0  0  0  0
  1  2  2  0
  2  3  1  0
  3  4  2  0
  4  5  1  0
  5  6  2  0
  4  7  1  0
  7  8  1  0
  8  9  1  0
  9 10  2  0
  9 11  1  0
 11 12  2  0
 12 13  1  0
 13 14  2  0
 14 15  1  0
 15 16  2  0
  6  1  1  0
 16 11  1  0
  1 17  1  0
  2 18  1  0
  3 19  1  0
  5 20  1  0
  6 21  1  0
  7 22  1  0
  7 23  1  0
 12 24  1  0
 14 25  1  0
 15 26  1  0
 16 27  1  0
M  END
$$$$
