
     RDKit          3D

 18 19  0  0  0  0  0  0  0  0999 V2000
    3.1052    0.4482    0.2227 C   0  0  0  0  0  0  0  0  0  0  0  0
    2.6362   -0.9025    0.4186 O   0  0  0  0  0  0  0  0  0  0  0  0
    1.2966   -0.7356    0.2583 C   0  0  0  0  0  0  0  0  0  0  0  0
    0.9589    0.5707   -0.0113 C   0  0  0  0  0  0  0  0  0  0  0  0
    2.0454    1.3878   -0.0542 O   0  0  0  0  0  0  0  0  0  0  0  0
   -0.3484    0.9618   -0.2093 C   0  0  0  0  0  0  0  0  0  0  0  0
   -1.3409   -0.0249   -0.1268 C   0  0  0  0  0  0  0  0  0  0  0  0
   -0.9907   -1.3658    0.1504 C   0  0  0  0  0  0  0  0  0  0  0  0
    0.3459   -1.7290    0.3462 C   0  0  0  0  0  0  0  0  0  0  0  0
   -2.7754    0.2934   -0.3246 C   0  0  0  0  0  0  0  0  0  0  0  0
   -3.6946   -0.5025   -0.2740 O   0  0  0  0  0  0  0  0  0  0  0  0
   -2.9915    1.5960   -0.5762 O   0  0  0  0  0  0  0  0  0  0  0  0
    3.8103    0.4567   -0.6173 H   0  0  0  0  0  0  0  0  0  0  0  0
    3.6324    0.7716    1.1284 H   0  0  0  0  0  0  0  0  0  0  0  0
   -0.5847    1.9987   -0.4203 H   0  0  0  0  0  0  0  0  0  0  0  0
   -1.7661   -2.1279    0.2134 H   0  0  0  0  0  0  0  0  0  0  0  0
    0.6252   -2.7548    0.5593 H   0  0  0  0  0  0  0  0  0  0  0  0
   -3.9637    1.6583   -0.6834 H   0  0  0  0  0  0  0  0  0  0  0  0
  1  2  1  0
  2  3  1  0
  3  4  2  0
  4  5  1  0
  4  6  1  0
  6  7  2  0
  7  8  1  0
  8  9  2  0
  7 10  1  0
 10 11  2  0
 10 12  1  0
  5  1  1  0
  9  3  1  0
  1 13  1  0
  1 14  1  0
  6 15  1  0
  8 16  1  0
  9 17  1  0
 12 18  1  0
M  END
$$$$
