
     RDKit          3D

 51 54  0  0  0  0  0  0  0  0999 V2000
   -5.4083   -4.6667   -1.5106 O   0  0  0  0  0  0  0  0  0  0  0  0
   -4.2209   -4.1107   -1.1325 C   0  0  0  0  0  0  0  0  0  0  0  0
   -4.0093   -2.7396   -1.1973 C   0  0  0  0  0  0  0  0  0  0  0  0
   -2.7800   -2.2121   -0.7906 C   0  0  0  0  0  0  0  0  0  0  0  0
   -1.7413   -3.0476   -0.3522 C   0  0  0  0  0  0  0  0  0  0  0  0
   -0.4153   -2.4573    0.0391 C   0  0  0  0  0  0  0  0  0  0  0  0
   -0.2652   -1.0018   -0.4137 C   0  0  0  0  0  0  0  0  0  0  0  0
    0.7884   -0.3664    0.3419 O   0  0  0  0  0  0  0  0  0  0  0  0
    2.0483   -0.5883   -0.1001 C   0  0  0  0  0  0  0  0  0  0  0  0
    2.3624   -1.3358   -1.0115 O   0  0  0  0  0  0  0  0  0  0  0  0
    3.0342    0.1953    0.6902 C   0  0  0  0  0  0  0  0  0  0  0  0
    4.3980    0.0441    0.3752 C   0  0  0  0  0  0  0  0  0  0  0  0
    5.3529    0.7538    1.0955 C   0  0  0  0  0  0  0  0  0  0  0  0
    6.6904    0.6475    0.8303 O   0  0  0  0  0  0  0  0  0  0  0  0
    4.9607    1.6048    2.1208 C   0  0  0  0  0  0  0  0  0  0  0  0
    5.8916    2.3054    2.8392 O   0  0  0  0  0  0  0  0  0  0  0  0
    3.6151    1.7587    2.4274 C   0  0  0  0  0  0  0  0  0  0  0  0
    3.2365    2.5996    3.4320 O   0  0  0  0  0  0  0  0  0  0  0  0
    2.6430    1.0634    1.7199 C   0  0  0  0  0  0  0  0  0  0  0  0
   -1.5929   -0.2754   -0.1368 C   0  0  0  0  0  0  0  0  0  0  0  0
   -2.6738   -0.8493   -0.8845 O   0  0  0  0  0  0  0  0  0  0  0  0
   -1.5761    1.2074   -0.4831 C   0  0  0  0  0  0  0  0  0  0  0  0
   -2.1260    2.1401    0.4246 C   0  0  0  0  0  0  0  0  0  0  0  0
   -2.1325    3.4970    0.1108 C   0  0  0  0  0  0  0  0  0  0  0  0
   -2.6569    4.4351    0.9590 O   0  0  0  0  0  0  0  0  0  0  0  0
   -1.6075    3.9380   -1.0982 C   0  0  0  0  0  0  0  0  0  0  0  0
   -1.6008    5.2709   -1.4105 O   0  0  0  0  0  0  0  0  0  0  0  0
   -1.0815    3.0294   -2.0063 C   0  0  0  0  0  0  0  0  0  0  0  0
   -0.5622    3.4675   -3.1929 O   0  0  0  0  0  0  0  0  0  0  0  0
   -1.0688    1.6706   -1.7152 C   0  0  0  0  0  0  0  0  0  0  0  0
   -1.9926   -4.4263   -0.2824 C   0  0  0  0  0  0  0  0  0  0  0  0
   -1.0697   -5.3318    0.1605 O   0  0  0  0  0  0  0  0  0  0  0  0
   -3.2232   -4.9572   -0.6711 C   0  0  0  0  0  0  0  0  0  0  0  0
   -5.9936   -3.9592   -1.8366 H   0  0  0  0  0  0  0  0  0  0  0  0
   -4.7837   -2.0665   -1.5525 H   0  0  0  0  0  0  0  0  0  0  0  0
    0.4028   -3.0437   -0.3975 H   0  0  0  0  0  0  0  0  0  0  0  0
   -0.3065   -2.5221    1.1304 H   0  0  0  0  0  0  0  0  0  0  0  0
   -0.0439   -0.9784   -1.4895 H   0  0  0  0  0  0  0  0  0  0  0  0
    4.6930   -0.6259   -0.4271 H   0  0  0  0  0  0  0  0  0  0  0  0
    6.8078    0.0919    0.0368 H   0  0  0  0  0  0  0  0  0  0  0  0
    6.7509    2.0341    2.4584 H   0  0  0  0  0  0  0  0  0  0  0  0
    4.0757    2.9737    3.7723 H   0  0  0  0  0  0  0  0  0  0  0  0
    1.5983    1.2082    1.9774 H   0  0  0  0  0  0  0  0  0  0  0  0
   -1.8268   -0.3622    0.9352 H   0  0  0  0  0  0  0  0  0  0  0  0
   -2.5436    1.7948    1.3682 H   0  0  0  0  0  0  0  0  0  0  0  0
   -3.0055    3.9784    1.7475 H   0  0  0  0  0  0  0  0  0  0  0  0
   -2.0207    5.6974   -0.6322 H   0  0  0  0  0  0  0  0  0  0  0  0
   -0.6889    4.4377   -3.1713 H   0  0  0  0  0  0  0  0  0  0  0  0
   -0.6662    0.9849   -2.4575 H   0  0  0  0  0  0  0  0  0  0  0  0
   -0.2667   -4.8776    0.4558 H   0  0  0  0  0  0  0  0  0  0  0  0
   -3.3989   -6.0282   -0.6174 H   0  0  0  0  0  0  0  0  0  0  0  0
  1  2  1  0
  2  3  2  0
  3  4  1  0
  4  5  2  0
  5  6  1  0
  6  7  1  0
  7  8  1  0
  8  9  1  0
  9 10  2  0
  9 11  1  0
 11 12  2  0
 12 13  1  0
 13 14  1  0
 13 15  2  0
 15 16  1  0
 15 17  1  0
 17 18  1  0
 17 19  2  0
  7 20  1  0
 20 21  1  0
 20 22  1  0
 22 23  2  0
 23 24  1  0
 24 25  1  0
 24 26  2  0
 26 27  1  0
 26 28  1  0
 28 29  1  0
 28 30  2  0
  5 31  1  0
 31 32  1  0
 31 33  2  0
 33  2  1  0
 21  4  1  0
 30 22  1  0
 19 11  1  0
  1 34  1  0
  3 35  1  0
  6 36  1  0
  6 37  1  0
  7 38  1  0
 12 39  1  0
 14 40  1  0
 16 41  1  0
 18 42  1  0
 19 43  1  0
 20 44  1  0
 23 45  1  0
 25 46  1  0
 27 47  1  0
 29 48  1  0
 30 49  1  0
 32 50  1  0
 33 51  1  0
M  END
$$$$
