
     RDKit          3D

 35 37  0  0  0  0  0  0  0  0999 V2000
   -0.9197   -1.6696   -0.1099 C   0  0  0  0  0  0  0  0  0  0  0  0
   -0.3466   -1.4787    1.2894 C   0  0  2  0  0  0  0  0  0  0  0  0
    0.1908   -0.0360    1.4285 C   0  0  2  0  0  0  0  0  0  0  0  0
   -0.8789    0.9186    1.2643 O   0  0  0  0  0  0  0  0  0  0  0  0
   -1.8098    0.6481    0.2911 C   0  0  0  0  0  0  0  0  0  0  0  0
   -2.7245    1.6768    0.0491 C   0  0  0  0  0  0  0  0  0  0  0  0
   -3.6929    1.5154   -0.9341 C   0  0  0  0  0  0  0  0  0  0  0  0
   -3.7529    0.3488   -1.6833 C   0  0  0  0  0  0  0  0  0  0  0  0
   -2.8355   -0.6706   -1.4405 C   0  0  0  0  0  0  0  0  0  0  0  0
   -1.8700   -0.5536   -0.4321 C   0  0  0  0  0  0  0  0  0  0  0  0
   -2.9391   -1.7797   -2.2320 O   0  0  0  0  0  0  0  0  0  0  0  0
   -4.6040    2.4942   -1.2017 O   0  0  0  0  0  0  0  0  0  0  0  0
    1.4197    0.3058    0.5787 C   0  0  0  0  0  0  0  0  0  0  0  0
    2.6414   -0.3465    0.8396 C   0  0  0  0  0  0  0  0  0  0  0  0
    3.7703   -0.0548    0.0800 C   0  0  0  0  0  0  0  0  0  0  0  0
    3.7092    0.8915   -0.9357 C   0  0  0  0  0  0  0  0  0  0  0  0
    2.5273    1.5599   -1.2048 C   0  0  0  0  0  0  0  0  0  0  0  0
    1.3879    1.2706   -0.4470 C   0  0  0  0  0  0  0  0  0  0  0  0
    4.8211    1.1725   -1.6759 O   0  0  0  0  0  0  0  0  0  0  0  0
    4.9679   -0.6784    0.2994 O   0  0  0  0  0  0  0  0  0  0  0  0
    0.6240   -2.4828    1.5888 O   0  0  0  0  0  0  0  0  0  0  0  0
   -0.1206   -1.7110   -0.8597 H   0  0  0  0  0  0  0  0  0  0  0  0
   -1.4342   -2.6379   -0.1441 H   0  0  0  0  0  0  0  0  0  0  0  0
   -1.1592   -1.6024    2.0191 H   0  0  0  0  0  0  0  0  0  0  0  0
    0.5213    0.0893    2.4687 H   0  0  0  0  0  0  0  0  0  0  0  0
   -2.6606    2.5915    0.6300 H   0  0  0  0  0  0  0  0  0  0  0  0
   -4.5051    0.2356   -2.4584 H   0  0  0  0  0  0  0  0  0  0  0  0
   -2.0822   -2.2345   -2.2550 H   0  0  0  0  0  0  0  0  0  0  0  0
   -4.4400    3.2453   -0.6079 H   0  0  0  0  0  0  0  0  0  0  0  0
    2.6979   -1.0810    1.6386 H   0  0  0  0  0  0  0  0  0  0  0  0
    2.4893    2.3035   -1.9950 H   0  0  0  0  0  0  0  0  0  0  0  0
    0.4769    1.8193   -0.6729 H   0  0  0  0  0  0  0  0  0  0  0  0
    5.5145    0.5939   -1.3009 H   0  0  0  0  0  0  0  0  0  0  0  0
    4.8428   -1.3181    1.0217 H   0  0  0  0  0  0  0  0  0  0  0  0
    0.1735   -3.3449    1.5454 H   0  0  0  0  0  0  0  0  0  0  0  0
  1  2  1  0
  2  3  1  0
  3  4  1  0
  4  5  1  0
  5  6  2  0
  6  7  1  0
  7  8  2  0
  8  9  1  0
  9 10  2  0
  9 11  1  0
  7 12  1  0
  3 13  1  0
 13 14  2  0
 14 15  1  0
 15 16  2  0
 16 17  1  0
 17 18  2  0
 16 19  1  0
 15 20  1  0
  2 21  1  0
 10  1  1  0
 10  5  1  0
 18 13  1  0
  1 22  1  0
  1 23  1  0
  2 24  1  1
  3 25  1  1
  6 26  1  0
  8 27  1  0
 11 28  1  0
 12 29  1  0
 14 30  1  0
 17 31  1  0
 18 32  1  0
 19 33  1  0
 20 34  1  0
 21 35  1  0
M  END
$$$$
