
     RDKit          3D

 38 39  0  0  0  0  0  0  0  0999 V2000
    5.5862    2.4894    0.7453 C   0  0  0  0  0  0  0  0  0  0  0  0
    4.4234    1.9147    1.0806 C   0  0  0  0  0  0  0  0  0  0  0  0
    4.2090    0.4313    1.1850 C   0  0  0  0  0  0  0  0  0  0  0  0
    3.1273   -0.0581    0.2515 C   0  0  0  0  0  0  0  0  0  0  0  0
    1.8098   -0.2275    0.7096 C   0  0  0  0  0  0  0  0  0  0  0  0
    0.7821   -0.6637   -0.1475 C   0  0  0  0  0  0  0  0  0  0  0  0
    1.1134   -0.9274   -1.4870 C   0  0  0  0  0  0  0  0  0  0  0  0
    2.4133   -0.7541   -1.9579 C   0  0  0  0  0  0  0  0  0  0  0  0
    3.4164   -0.3183   -1.0936 C   0  0  0  0  0  0  0  0  0  0  0  0
    0.1991   -1.3742   -2.4042 O   0  0  0  0  0  0  0  0  0  0  0  0
   -0.5811   -0.8176    0.3780 C   0  0  0  0  0  0  0  0  0  0  0  0
   -1.6021    0.0673   -0.0060 C   0  0  0  0  0  0  0  0  0  0  0  0
   -2.9157   -0.0742    0.4750 C   0  0  0  0  0  0  0  0  0  0  0  0
   -3.1957   -1.1299    1.3476 C   0  0  0  0  0  0  0  0  0  0  0  0
   -2.1963   -2.0149    1.7480 C   0  0  0  0  0  0  0  0  0  0  0  0
   -0.8955   -1.8565    1.2653 C   0  0  0  0  0  0  0  0  0  0  0  0
   -4.4726   -1.2898    1.8058 O   0  0  0  0  0  0  0  0  0  0  0  0
   -3.9853    0.8857    0.0091 C   0  0  0  0  0  0  0  0  0  0  0  0
   -4.6051    0.4552   -1.2916 C   0  0  0  0  0  0  0  0  0  0  0  0
   -4.5275    1.1462   -2.4366 C   0  0  0  0  0  0  0  0  0  0  0  0
    5.6735    3.5702    0.6875 H   0  0  0  0  0  0  0  0  0  0  0  0
    6.4702    1.9020    0.5180 H   0  0  0  0  0  0  0  0  0  0  0  0
    3.5666    2.5493    1.2990 H   0  0  0  0  0  0  0  0  0  0  0  0
    5.1355   -0.1200    0.9791 H   0  0  0  0  0  0  0  0  0  0  0  0
    3.9417    0.1858    2.2204 H   0  0  0  0  0  0  0  0  0  0  0  0
    1.5753   -0.0056    1.7500 H   0  0  0  0  0  0  0  0  0  0  0  0
    2.6428   -0.9593   -2.9999 H   0  0  0  0  0  0  0  0  0  0  0  0
    4.4251   -0.1788   -1.4758 H   0  0  0  0  0  0  0  0  0  0  0  0
   -0.6520   -1.5106   -1.9534 H   0  0  0  0  0  0  0  0  0  0  0  0
   -1.3720    0.8807   -0.6945 H   0  0  0  0  0  0  0  0  0  0  0  0
   -2.4093   -2.8344    2.4277 H   0  0  0  0  0  0  0  0  0  0  0  0
   -0.1239   -2.5583    1.5768 H   0  0  0  0  0  0  0  0  0  0  0  0
   -4.5008   -2.0589    2.3981 H   0  0  0  0  0  0  0  0  0  0  0  0
   -3.5492    1.8896   -0.0791 H   0  0  0  0  0  0  0  0  0  0  0  0
   -4.7722    0.9812    0.7668 H   0  0  0  0  0  0  0  0  0  0  0  0
   -5.1603   -0.4807   -1.2731 H   0  0  0  0  0  0  0  0  0  0  0  0
   -3.9891    2.0865   -2.5013 H   0  0  0  0  0  0  0  0  0  0  0  0
   -5.0048    0.7777   -3.3394 H   0  0  0  0  0  0  0  0  0  0  0  0
  1  2  2  3
  2  3  1  0
  3  4  1  0
  4  5  2  0
  5  6  1  0
  6  7  2  0
  7  8  1  0
  8  9  2  0
  7 10  1  0
  6 11  1  0
 11 12  2  0
 12 13  1  0
 13 14  2  0
 14 15  1  0
 15 16  2  0
 14 17  1  0
 13 18  1  0
 18 19  1  0
 19 20  2  3
  9  4  1  0
 16 11  1  0
  1 21  1  0
  1 22  1  0
  2 23  1  0
  3 24  1  0
  3 25  1  0
  5 26  1  0
  8 27  1  0
  9 28  1  0
 10 29  1  0
 12 30  1  0
 15 31  1  0
 16 32  1  0
 17 33  1  0
 18 34  1  0
 18 35  1  0
 19 36  1  0
 20 37  1  0
 20 38  1  0
M  END
$$$$
