
     RDKit          3D

 51 54  0  0  0  0  0  0  0  0999 V2000
    6.8047   -1.1437   -0.7565 C   0  0  0  0  0  0  0  0  0  0  0  0
    5.9206   -0.4649    0.1229 O   0  0  0  0  0  0  0  0  0  0  0  0
    4.5905   -0.4654   -0.1961 C   0  0  0  0  0  0  0  0  0  0  0  0
    3.7282    0.1807    0.7124 C   0  0  0  0  0  0  0  0  0  0  0  0
    2.3369    0.2200    0.5097 C   0  0  0  0  0  0  0  0  0  0  0  0
    1.8076   -0.3548   -0.6602 C   0  0  0  0  0  0  0  0  0  0  0  0
    0.3137   -0.3664   -0.8992 C   0  0  0  0  0  0  0  0  0  0  0  0
   -0.4653    0.5767    0.0475 C   0  0  1  0  0  0  0  0  0  0  0  0
   -1.9586    0.2870    0.0091 C   0  0  0  0  0  0  0  0  0  0  0  0
   -2.8279    0.9888   -0.8335 C   0  0  0  0  0  0  0  0  0  0  0  0
   -4.2011    0.6963   -0.8528 C   0  0  0  0  0  0  0  0  0  0  0  0
   -4.7003   -0.3236   -0.0102 C   0  0  0  0  0  0  0  0  0  0  0  0
   -3.8308   -1.0275    0.8241 C   0  0  0  0  0  0  0  0  0  0  0  0
   -2.4608   -0.7194    0.8499 C   0  0  0  0  0  0  0  0  0  0  0  0
   -1.5070   -1.4989    1.7082 C   0  0  0  0  0  0  0  0  0  0  0  0
   -0.2462   -0.7126    2.1363 C   0  0  0  0  0  0  0  0  0  0  0  0
    0.0226    0.5486    1.4295 N   0  0  0  0  0  0  0  0  0  0  0  0
    1.4374    0.9353    1.4974 C   0  0  0  0  0  0  0  0  0  0  0  0
   -6.0527   -0.5579   -0.0968 O   0  0  0  0  0  0  0  0  0  0  0  0
   -6.6310   -1.4211    0.8717 C   0  0  0  0  0  0  0  0  0  0  0  0
   -5.1258    1.3261   -1.6419 O   0  0  0  0  0  0  0  0  0  0  0  0
   -4.6825    2.4042   -2.4546 C   0  0  0  0  0  0  0  0  0  0  0  0
    2.6596   -0.9936   -1.5673 C   0  0  0  0  0  0  0  0  0  0  0  0
    4.0405   -1.0417   -1.3462 C   0  0  0  0  0  0  0  0  0  0  0  0
    4.2464    0.7268    1.8607 O   0  0  0  0  0  0  0  0  0  0  0  0
    4.7498    2.0412    1.6053 C   0  0  0  0  0  0  0  0  0  0  0  0
    7.8096   -1.0823   -0.3291 H   0  0  0  0  0  0  0  0  0  0  0  0
    6.5466   -2.2045   -0.8447 H   0  0  0  0  0  0  0  0  0  0  0  0
    6.8304   -0.6614   -1.7418 H   0  0  0  0  0  0  0  0  0  0  0  0
    0.1172   -0.0695   -1.9422 H   0  0  0  0  0  0  0  0  0  0  0  0
   -0.0276   -1.4040   -0.7953 H   0  0  0  0  0  0  0  0  0  0  0  0
   -0.3299    1.6081   -0.3176 H   0  0  0  0  0  0  0  0  0  0  0  0
   -2.4185    1.7702   -1.4695 H   0  0  0  0  0  0  0  0  0  0  0  0
   -4.1873   -1.8304    1.4661 H   0  0  0  0  0  0  0  0  0  0  0  0
   -2.0139   -1.8681    2.6112 H   0  0  0  0  0  0  0  0  0  0  0  0
   -1.1950   -2.3825    1.1324 H   0  0  0  0  0  0  0  0  0  0  0  0
   -0.3659   -0.4495    3.2006 H   0  0  0  0  0  0  0  0  0  0  0  0
    0.6139   -1.4021    2.1030 H   0  0  0  0  0  0  0  0  0  0  0  0
    1.5121    2.0104    1.2928 H   0  0  0  0  0  0  0  0  0  0  0  0
    1.7985    0.7950    2.5241 H   0  0  0  0  0  0  0  0  0  0  0  0
   -7.7150   -1.3964    0.7319 H   0  0  0  0  0  0  0  0  0  0  0  0
   -6.3012   -2.4518    0.7256 H   0  0  0  0  0  0  0  0  0  0  0  0
   -6.4222   -1.0785    1.8920 H   0  0  0  0  0  0  0  0  0  0  0  0
   -4.2511    3.2121   -1.8478 H   0  0  0  0  0  0  0  0  0  0  0  0
   -3.9731    2.0572   -3.2146 H   0  0  0  0  0  0  0  0  0  0  0  0
   -5.5543    2.8103   -2.9775 H   0  0  0  0  0  0  0  0  0  0  0  0
    2.2554   -1.4581   -2.4649 H   0  0  0  0  0  0  0  0  0  0  0  0
    4.6514   -1.5505   -2.0825 H   0  0  0  0  0  0  0  0  0  0  0  0
    4.9419    2.2507    0.5434 H   0  0  0  0  0  0  0  0  0  0  0  0
    5.6839    2.1611    2.1605 H   0  0  0  0  0  0  0  0  0  0  0  0
    4.0256    2.7742    1.9873 H   0  0  0  0  0  0  0  0  0  0  0  0
  1  2  1  0
  2  3  1  0
  3  4  2  0
  4  5  1  0
  5  6  2  0
  6  7  1  0
  7  8  1  0
  8  9  1  0
  9 10  2  0
 10 11  1  0
 11 12  2  0
 12 13  1  0
 13 14  2  0
 14 15  1  0
 15 16  1  0
 16 17  1  0
 17 18  1  0
 12 19  1  0
 19 20  1  0
 11 21  1  0
 21 22  1  0
  6 23  1  0
 23 24  2  0
  4 25  1  0
 25 26  1  0
 24  3  1  0
 18  5  1  0
 17  8  1  0
 14  9  1  0
  1 27  1  0
  1 28  1  0
  1 29  1  0
  7 30  1  0
  7 31  1  0
  8 32  1  6
 10 33  1  0
 13 34  1  0
 15 35  1  0
 15 36  1  0
 16 37  1  0
 16 38  1  0
 18 39  1  0
 18 40  1  0
 20 41  1  0
 20 42  1  0
 20 43  1  0
 22 44  1  0
 22 45  1  0
 22 46  1  0
 23 47  1  0
 24 48  1  0
 26 49  1  0
 26 50  1  0
 26 51  1  0
M  END
$$$$
