
     RDKit          3D

 38 39  0  0  0  0  0  0  0  0999 V2000
    4.4201    2.6858    1.3583 C   0  0  0  0  0  0  0  0  0  0  0  0
    4.5354    1.3728    1.1197 C   0  0  0  0  0  0  0  0  0  0  0  0
    3.7496    0.3002    1.8060 C   0  0  0  0  0  0  0  0  0  0  0  0
    2.8921   -0.4953    0.8244 C   0  0  0  0  0  0  0  0  0  0  0  0
    1.5717   -0.1308    0.5255 C   0  0  0  0  0  0  0  0  0  0  0  0
    0.8135   -0.8204   -0.4407 C   0  0  0  0  0  0  0  0  0  0  0  0
    1.4294   -1.8923   -1.1018 C   0  0  0  0  0  0  0  0  0  0  0  0
    2.7455   -2.2585   -0.8325 C   0  0  0  0  0  0  0  0  0  0  0  0
    3.4754   -1.5595    0.1327 C   0  0  0  0  0  0  0  0  0  0  0  0
    0.7897   -2.6288   -2.0658 O   0  0  0  0  0  0  0  0  0  0  0  0
   -0.5458   -0.3602   -0.7846 C   0  0  0  0  0  0  0  0  0  0  0  0
   -0.7915    0.3317   -1.9848 C   0  0  0  0  0  0  0  0  0  0  0  0
   -2.0854    0.6996   -2.3699 C   0  0  0  0  0  0  0  0  0  0  0  0
   -3.1551    0.4243   -1.5331 C   0  0  0  0  0  0  0  0  0  0  0  0
   -2.9523   -0.2521   -0.3134 C   0  0  0  0  0  0  0  0  0  0  0  0
   -1.6428   -0.6391    0.0505 C   0  0  0  0  0  0  0  0  0  0  0  0
   -4.1224   -0.6055    0.5767 C   0  0  0  0  0  0  0  0  0  0  0  0
   -4.4185    0.4373    1.6123 C   0  0  0  0  0  0  0  0  0  0  0  0
   -5.5865    1.1180    1.7007 C   0  0  0  0  0  0  0  0  0  0  0  0
    0.2357    0.6040   -2.8660 O   0  0  0  0  0  0  0  0  0  0  0  0
    5.0412    3.4040    0.8293 H   0  0  0  0  0  0  0  0  0  0  0  0
    3.7224    3.0657    2.0949 H   0  0  0  0  0  0  0  0  0  0  0  0
    5.2646    1.0127    0.3886 H   0  0  0  0  0  0  0  0  0  0  0  0
    3.1195    0.7387    2.5794 H   0  0  0  0  0  0  0  0  0  0  0  0
    4.4571   -0.3730    2.3051 H   0  0  0  0  0  0  0  0  0  0  0  0
    1.0926    0.7032    1.0258 H   0  0  0  0  0  0  0  0  0  0  0  0
    3.2047   -3.0644   -1.3985 H   0  0  0  0  0  0  0  0  0  0  0  0
    4.5068   -1.8818    0.3384 H   0  0  0  0  0  0  0  0  0  0  0  0
   -0.1536   -2.6342   -1.8112 H   0  0  0  0  0  0  0  0  0  0  0  0
   -2.2448    1.1930   -3.3282 H   0  0  0  0  0  0  0  0  0  0  0  0
   -4.1671    0.7192   -1.8188 H   0  0  0  0  0  0  0  0  0  0  0  0
   -1.4926   -1.1731    0.9972 H   0  0  0  0  0  0  0  0  0  0  0  0
   -3.9235   -1.5662    1.0739 H   0  0  0  0  0  0  0  0  0  0  0  0
   -4.9912   -0.8012   -0.0617 H   0  0  0  0  0  0  0  0  0  0  0  0
   -3.6226    0.6240    2.3279 H   0  0  0  0  0  0  0  0  0  0  0  0
   -6.4301    0.9585    1.0133 H   0  0  0  0  0  0  0  0  0  0  0  0
   -5.7303    1.8371    2.5046 H   0  0  0  0  0  0  0  0  0  0  0  0
    0.9891    0.9068   -2.3067 H   0  0  0  0  0  0  0  0  0  0  0  0
  1  2  2  3
  2  3  1  0
  3  4  1  0
  4  5  2  0
  5  6  1  0
  6  7  2  0
  7  8  1  0
  8  9  2  0
  7 10  1  0
  6 11  1  0
 11 12  2  0
 12 13  1  0
 13 14  2  0
 14 15  1  0
 15 16  2  0
 15 17  1  0
 17 18  1  0
 18 19  2  3
 12 20  1  0
  9  4  1  0
 16 11  1  0
  1 21  1  0
  1 22  1  0
  2 23  1  0
  3 24  1  0
  3 25  1  0
  5 26  1  0
  8 27  1  0
  9 28  1  0
 10 29  1  0
 13 30  1  0
 14 31  1  0
 16 32  1  0
 17 33  1  0
 17 34  1  0
 18 35  1  0
 19 36  1  0
 19 37  1  0
 20 38  1  0
M  END
$$$$
