
     RDKit          3D

 38 43  0  0  0  0  0  0  0  0999 V2000
    1.8320    1.2990    1.8142 C   0  0  0  0  0  0  0  0  0  0  0  0
    0.6431    0.4793    2.2819 C   0  0  0  0  0  0  0  0  0  0  0  0
   -0.2557    0.1850    1.1346 N   0  0  0  0  0  4  0  0  0  0  0  0
    0.2524   -0.1739   -0.0813 C   0  0  0  0  0  0  0  0  0  0  0  0
   -0.6351   -0.4666   -1.1318 C   0  0  0  0  0  0  0  0  0  0  0  0
   -2.0192   -0.4153   -0.9423 C   0  0  0  0  0  0  0  0  0  0  0  0
   -2.9363   -0.7071   -1.9809 C   0  0  0  0  0  0  0  0  0  0  0  0
   -4.3172   -0.6505   -1.7627 C   0  0  0  0  0  0  0  0  0  0  0  0
   -4.7560   -0.3013   -0.5057 C   0  0  0  0  0  0  0  0  0  0  0  0
   -3.8784   -0.0137    0.5116 C   0  0  0  0  0  0  0  0  0  0  0  0
   -2.5009   -0.0594    0.3281 C   0  0  0  0  0  0  0  0  0  0  0  0
   -1.5928    0.2327    1.3454 C   0  0  0  0  0  0  0  0  0  0  0  0
   -4.5226    0.3087    1.6689 O   0  0  0  0  0  0  0  0  0  0  0  0
   -5.9071    0.1884    1.2597 C   0  0  0  0  0  0  0  0  0  0  0  0
   -6.0537   -0.1979   -0.1203 O   0  0  0  0  0  0  0  0  0  0  0  0
    1.7247   -0.1891   -0.2100 C   0  0  0  0  0  0  0  0  0  0  0  0
    2.3831   -0.9062   -1.2284 C   0  0  0  0  0  0  0  0  0  0  0  0
    3.7606   -0.8409   -1.3106 C   0  0  0  0  0  0  0  0  0  0  0  0
    4.5079   -0.1012   -0.4317 C   0  0  0  0  0  0  0  0  0  0  0  0
    3.9219    0.6094    0.5890 C   0  0  0  0  0  0  0  0  0  0  0  0
    2.5234    0.5500    0.7091 C   0  0  0  0  0  0  0  0  0  0  0  0
    5.8382   -0.1706   -0.6928 O   0  0  0  0  0  0  0  0  0  0  0  0
    5.8485   -1.0398   -1.8464 C   0  0  0  0  0  0  0  0  0  0  0  0
    4.5264   -1.4734   -2.2382 O   0  0  0  0  0  0  0  0  0  0  0  0
    2.5108    1.4667    2.6577 H   0  0  0  0  0  0  0  0  0  0  0  0
    1.5083    2.2751    1.4345 H   0  0  0  0  0  0  0  0  0  0  0  0
    0.0827    1.0339    3.0415 H   0  0  0  0  0  0  0  0  0  0  0  0
    0.9379   -0.4929    2.6953 H   0  0  0  0  0  0  0  0  0  0  0  0
   -0.2503   -0.7222   -2.1177 H   0  0  0  0  0  0  0  0  0  0  0  0
   -2.5808   -0.9836   -2.9736 H   0  0  0  0  0  0  0  0  0  0  0  0
   -5.0226   -0.8745   -2.5573 H   0  0  0  0  0  0  0  0  0  0  0  0
   -1.9332    0.5046    2.3419 H   0  0  0  0  0  0  0  0  0  0  0  0
   -6.4013    1.1547    1.4114 H   0  0  0  0  0  0  0  0  0  0  0  0
   -6.3940   -0.5632    1.8915 H   0  0  0  0  0  0  0  0  0  0  0  0
    1.8561   -1.5172   -1.9550 H   0  0  0  0  0  0  0  0  0  0  0  0
    4.5385    1.1861    1.2724 H   0  0  0  0  0  0  0  0  0  0  0  0
    6.4539   -1.9237   -1.6155 H   0  0  0  0  0  0  0  0  0  0  0  0
    6.3063   -0.5049   -2.6863 H   0  0  0  0  0  0  0  0  0  0  0  0
  1  2  1  0
  2  3  1  0
  3  4  2  0
  4  5  1  0
  5  6  2  0
  6  7  1  0
  7  8  2  0
  8  9  1  0
  9 10  2  0
 10 11  1  0
 11 12  2  0
 10 13  1  0
 13 14  1  0
 14 15  1  0
  4 16  1  0
 16 17  2  0
 17 18  1  0
 18 19  2  0
 19 20  1  0
 20 21  2  0
 19 22  1  0
 22 23  1  0
 23 24  1  0
 21  1  1  0
 12  3  1  0
 11  6  1  0
 15  9  1  0
 21 16  1  0
 24 18  1  0
  1 25  1  0
  1 26  1  0
  2 27  1  0
  2 28  1  0
  5 29  1  0
  7 30  1  0
  8 31  1  0
 12 32  1  0
 14 33  1  0
 14 34  1  0
 17 35  1  0
 20 36  1  0
 23 37  1  0
 23 38  1  0
M  CHG  1   3   1
M  END
$$$$
