
     RDKit          3D

 38 42  0  0  0  0  0  0  0  0999 V2000
   -3.1820    2.0096    0.0434 C   0  0  0  0  0  0  0  0  0  0  0  0
   -1.8846    2.8281   -0.0408 C   0  0  0  0  0  0  0  0  0  0  0  0
   -0.8385    1.8579    0.2796 N   0  0  0  0  0  0  0  0  0  0  0  0
    0.5229    2.2062   -0.0971 C   0  0  0  0  0  0  0  0  0  0  0  0
    1.4710    1.0269    0.0672 C   0  0  0  0  0  0  0  0  0  0  0  0
    2.8621    1.2711    0.0328 C   0  0  0  0  0  0  0  0  0  0  0  0
    3.7109    0.1891    0.1477 C   0  0  0  0  0  0  0  0  0  0  0  0
    3.2443   -1.0983    0.2863 C   0  0  0  0  0  0  0  0  0  0  0  0
    1.8922   -1.3898    0.3126 C   0  0  0  0  0  0  0  0  0  0  0  0
    0.9772   -0.3221    0.1775 C   0  0  0  0  0  0  0  0  0  0  0  0
   -0.5464   -0.5757    0.2051 C   0  0  1  0  0  0  0  0  0  0  0  0
   -1.2289    0.6368   -0.4243 C   0  0  1  0  0  0  0  0  0  0  0  0
   -2.7160    0.6150   -0.2628 C   0  0  0  0  0  0  0  0  0  0  0  0
   -3.4088   -0.5306   -0.3181 C   0  0  0  0  0  0  0  0  0  0  0  0
   -2.6982   -1.8432   -0.5612 C   0  0  1  0  0  0  0  0  0  0  0  0
   -1.1309   -1.8574   -0.4406 C   0  0  1  0  0  0  0  0  0  0  0  0
   -0.5419   -2.0496   -1.7626 O   0  0  0  0  0  0  0  0  0  0  0  0
   -3.2613   -2.8154    0.3557 O   0  0  0  0  0  0  0  0  0  0  0  0
    4.2508   -2.0061    0.3805 O   0  0  0  0  0  0  0  0  0  0  0  0
    5.3935   -1.1309    0.2349 C   0  0  0  0  0  0  0  0  0  0  0  0
    5.0693    0.2746    0.1397 O   0  0  0  0  0  0  0  0  0  0  0  0
   -3.6015    2.0398    1.0528 H   0  0  0  0  0  0  0  0  0  0  0  0
   -3.9280    2.3558   -0.6770 H   0  0  0  0  0  0  0  0  0  0  0  0
   -1.7687    3.2472   -1.0442 H   0  0  0  0  0  0  0  0  0  0  0  0
   -1.9017    3.6621    0.6662 H   0  0  0  0  0  0  0  0  0  0  0  0
    0.8602    3.0413    0.5253 H   0  0  0  0  0  0  0  0  0  0  0  0
    0.5596    2.5305   -1.1455 H   0  0  0  0  0  0  0  0  0  0  0  0
    3.2500    2.2809   -0.0799 H   0  0  0  0  0  0  0  0  0  0  0  0
    1.5760   -2.4305    0.4175 H   0  0  0  0  0  0  0  0  0  0  0  0
   -0.8048   -0.6247    1.2765 H   0  0  0  0  0  0  0  0  0  0  0  0
   -1.0047    0.7155   -1.5010 H   0  0  0  0  0  0  0  0  0  0  0  0
   -4.4879   -0.5336   -0.1656 H   0  0  0  0  0  0  0  0  0  0  0  0
   -2.9855   -2.1838   -1.5725 H   0  0  0  0  0  0  0  0  0  0  0  0
   -0.8072   -2.7351    0.1481 H   0  0  0  0  0  0  0  0  0  0  0  0
   -0.7319   -2.9686   -2.0154 H   0  0  0  0  0  0  0  0  0  0  0  0
   -4.1740   -2.9787    0.0396 H   0  0  0  0  0  0  0  0  0  0  0  0
    5.9350   -1.4238   -0.6734 H   0  0  0  0  0  0  0  0  0  0  0  0
    6.0584   -1.2907    1.0936 H   0  0  0  0  0  0  0  0  0  0  0  0
  1  2  1  0
  2  3  1  0
  3  4  1  0
  4  5  1  0
  5  6  2  0
  6  7  1  0
  7  8  2  0
  8  9  1  0
  9 10  2  0
 10 11  1  0
 11 12  1  0
 12 13  1  0
 13 14  2  0
 14 15  1  0
 15 16  1  0
 16 17  1  0
 15 18  1  0
  8 19  1  0
 19 20  1  0
 20 21  1  0
 13  1  1  0
 12  3  1  0
 10  5  1  0
 21  7  1  0
 16 11  1  0
  1 22  1  0
  1 23  1  0
  2 24  1  0
  2 25  1  0
  4 26  1  0
  4 27  1  0
  6 28  1  0
  9 29  1  0
 11 30  1  1
 12 31  1  6
 14 32  1  0
 15 33  1  6
 16 34  1  1
 17 35  1  0
 18 36  1  0
 20 37  1  0
 20 38  1  0
M  END
$$$$
