
     RDKit          3D

 66 71  0  0  0  0  0  0  0  0999 V2000
   -1.8068    2.5225   -1.3225 C   0  0  0  0  0  0  0  0  0  0  0  0
   -1.9122    1.9727    0.1113 C   0  0  1  0  0  0  0  0  0  0  0  0
   -3.3007    1.4283    0.4604 C   0  0  0  0  0  0  0  0  0  0  0  0
   -3.9747    0.4419   -0.1755 C   0  0  0  0  0  0  0  0  0  0  0  0
   -5.2601   -0.0322    0.4281 C   0  0  0  0  0  0  0  0  0  0  0  0
   -5.9735   -0.8699   -0.1153 O   0  0  0  0  0  0  0  0  0  0  0  0
   -5.6378    0.5222    1.7281 C   0  0  0  0  0  0  0  0  0  0  0  0
   -4.8816    1.5661    2.2442 C   0  0  0  0  0  0  0  0  0  0  0  0
   -3.7968    2.0777    1.5925 O   0  0  0  0  0  0  0  0  0  0  0  0
   -5.2152    2.1375    3.4726 C   0  0  0  0  0  0  0  0  0  0  0  0
   -6.2989    1.6420    4.1947 C   0  0  0  0  0  0  0  0  0  0  0  0
   -7.0385    0.5815    3.6774 C   0  0  0  0  0  0  0  0  0  0  0  0
   -6.7252    0.0198    2.4467 C   0  0  0  0  0  0  0  0  0  0  0  0
   -8.0727    0.1004    4.3810 F   0  0  0  0  0  0  0  0  0  0  0  0
   -3.5075   -0.2083   -1.4112 C   0  0  0  0  0  0  0  0  0  0  0  0
   -4.0157    0.2102   -2.6470 C   0  0  0  0  0  0  0  0  0  0  0  0
   -3.5572   -0.3791   -3.8194 C   0  0  0  0  0  0  0  0  0  0  0  0
   -2.6044   -1.3902   -3.7872 C   0  0  0  0  0  0  0  0  0  0  0  0
   -2.1131   -1.8289   -2.5619 C   0  0  0  0  0  0  0  0  0  0  0  0
   -2.5662   -1.2471   -1.3740 C   0  0  0  0  0  0  0  0  0  0  0  0
   -4.0376    0.0397   -4.9994 F   0  0  0  0  0  0  0  0  0  0  0  0
   -0.8044    1.0734    0.4816 N   0  0  0  0  0  0  0  0  0  0  0  0
   -0.7785    0.1726    1.5195 C   0  0  0  0  0  0  0  0  0  0  0  0
   -1.7644   -0.1121    2.3854 N   0  0  0  0  0  0  0  0  0  0  0  0
   -1.4156   -1.0689    3.2596 C   0  0  0  0  0  0  0  0  0  0  0  0
   -0.2528   -1.7392    3.3204 N   0  0  0  0  0  0  0  0  0  0  0  0
    0.7117   -1.4395    2.4262 C   0  0  0  0  0  0  0  0  0  0  0  0
    0.4730   -0.4087    1.5005 C   0  0  0  0  0  0  0  0  0  0  0  0
    1.1881    0.2997    0.4891 C   0  0  0  0  0  0  0  0  0  0  0  0
    0.3964    1.1766   -0.1480 N   0  0  0  0  0  0  0  0  0  0  0  0
    2.6024    0.1968    0.1611 C   0  0  0  0  0  0  0  0  0  0  0  0
    3.5644    0.3069    1.1665 C   0  0  0  0  0  0  0  0  0  0  0  0
    4.9084    0.1174    0.8641 C   0  0  0  0  0  0  0  0  0  0  0  0
    5.3364   -0.1707   -0.4367 C   0  0  0  0  0  0  0  0  0  0  0  0
    4.3811   -0.2059   -1.4530 C   0  0  0  0  0  0  0  0  0  0  0  0
    3.0199   -0.0324   -1.1547 C   0  0  0  0  0  0  0  0  0  0  0  0
    6.6732   -0.3892   -0.5571 O   0  0  0  0  0  0  0  0  0  0  0  0
    7.2490   -0.8200   -1.7915 C   0  0  0  0  0  0  0  0  0  0  0  0
    8.0380   -2.0963   -1.5076 C   0  0  0  0  0  0  0  0  0  0  0  0
    8.1663    0.3013   -2.2723 C   0  0  0  0  0  0  0  0  0  0  0  0
    5.8003    0.1820    1.8659 F   0  0  0  0  0  0  0  0  0  0  0  0
    1.8562   -2.2044    2.4914 N   0  0  0  0  0  0  0  0  0  0  0  0
   -2.7182    3.0575   -1.6137 H   0  0  0  0  0  0  0  0  0  0  0  0
   -0.9764    3.2349   -1.4006 H   0  0  0  0  0  0  0  0  0  0  0  0
   -1.6074    1.7328   -2.0550 H   0  0  0  0  0  0  0  0  0  0  0  0
   -1.7408    2.8504    0.7618 H   0  0  0  0  0  0  0  0  0  0  0  0
   -4.6270    2.9592    3.8688 H   0  0  0  0  0  0  0  0  0  0  0  0
   -6.5737    2.0714    5.1556 H   0  0  0  0  0  0  0  0  0  0  0  0
   -7.3233   -0.7977    2.0602 H   0  0  0  0  0  0  0  0  0  0  0  0
   -4.7698    0.9936   -2.7133 H   0  0  0  0  0  0  0  0  0  0  0  0
   -2.2654   -1.8360   -4.7163 H   0  0  0  0  0  0  0  0  0  0  0  0
   -1.3818   -2.6298   -2.5238 H   0  0  0  0  0  0  0  0  0  0  0  0
   -2.1886   -1.6180   -0.4234 H   0  0  0  0  0  0  0  0  0  0  0  0
   -2.1619   -1.3394    4.0014 H   0  0  0  0  0  0  0  0  0  0  0  0
    3.2895    0.5214    2.1951 H   0  0  0  0  0  0  0  0  0  0  0  0
    4.6422   -0.3787   -2.4887 H   0  0  0  0  0  0  0  0  0  0  0  0
    2.2865   -0.0850   -1.9566 H   0  0  0  0  0  0  0  0  0  0  0  0
    6.5179   -1.0488   -2.5678 H   0  0  0  0  0  0  0  0  0  0  0  0
    7.3628   -2.8858   -1.1564 H   0  0  0  0  0  0  0  0  0  0  0  0
    8.7754   -1.9379   -0.7122 H   0  0  0  0  0  0  0  0  0  0  0  0
    8.5537   -2.4564   -2.4026 H   0  0  0  0  0  0  0  0  0  0  0  0
    7.5891    1.2159   -2.4371 H   0  0  0  0  0  0  0  0  0  0  0  0
    8.9245    0.5395   -1.5162 H   0  0  0  0  0  0  0  0  0  0  0  0
    8.6733    0.0321   -3.2043 H   0  0  0  0  0  0  0  0  0  0  0  0
    1.9864   -2.6808    3.3806 H   0  0  0  0  0  0  0  0  0  0  0  0
    2.6801   -1.9605    1.9593 H   0  0  0  0  0  0  0  0  0  0  0  0
  1  2  1  0
  2  3  1  0
  3  4  2  0
  4  5  1  0
  5  6  2  0
  5  7  1  0
  7  8  2  0
  8  9  1  0
  8 10  1  0
 10 11  2  0
 11 12  1  0
 12 13  2  0
 12 14  1  0
  4 15  1  0
 15 16  2  0
 16 17  1  0
 17 18  2  0
 18 19  1  0
 19 20  2  0
 17 21  1  0
  2 22  1  0
 22 23  1  0
 23 24  2  0
 24 25  1  0
 25 26  2  0
 26 27  1  0
 27 28  2  0
 28 29  1  0
 29 30  2  0
 29 31  1  0
 31 32  2  0
 32 33  1  0
 33 34  2  0
 34 35  1  0
 35 36  2  0
 34 37  1  0
 37 38  1  0
 38 39  1  0
 38 40  1  0
 33 41  1  0
 27 42  1  0
  9  3  1  0
 13  7  1  0
 20 15  1  0
 30 22  1  0
 28 23  1  0
 36 31  1  0
  1 43  1  0
  1 44  1  0
  1 45  1  0
  2 46  1  1
 10 47  1  0
 11 48  1  0
 13 49  1  0
 16 50  1  0
 18 51  1  0
 19 52  1  0
 20 53  1  0
 25 54  1  0
 32 55  1  0
 35 56  1  0
 36 57  1  0
 38 58  1  0
 39 59  1  0
 39 60  1  0
 39 61  1  0
 40 62  1  0
 40 63  1  0
 40 64  1  0
 42 65  1  0
 42 66  1  0
M  END
$$$$
