
     RDKit          3D

 67 71  0  0  0  0  0  0  0  0999 V2000
   -0.0750   -3.1110   -0.2630 C   0  0  0  0  0  0  0  0  0  0  0  0
    1.3464   -2.8155    0.2607 C   0  0  2  0  0  0  0  0  0  0  0  0
    1.3739   -2.2465    1.6975 C   0  0  2  0  0  0  0  0  0  0  0  0
    1.0110   -0.7575    1.7781 C   0  0  1  0  0  0  0  0  0  0  0  0
    1.4376    0.0261    0.5262 C   0  0  2  0  0  0  0  0  0  0  0  0
    2.5151   -0.7452   -0.2753 C   0  0  1  0  0  0  0  0  0  0  0  0
    2.0263   -2.0147   -0.7188 O   0  0  0  0  0  0  0  0  0  0  0  0
    2.8503   -0.0008   -1.4638 O   0  0  0  0  0  0  0  0  0  0  0  0
    3.7605    0.9810   -1.2947 C   0  0  0  0  0  0  0  0  0  0  0  0
    4.2962    1.2715   -0.2345 O   0  0  0  0  0  0  0  0  0  0  0  0
    4.0247    1.6850   -2.5751 C   0  0  0  0  0  0  0  0  0  0  0  0
    5.1263    2.5558   -2.6332 C   0  0  0  0  0  0  0  0  0  0  0  0
    5.3908    3.2484   -3.8080 C   0  0  0  0  0  0  0  0  0  0  0  0
    4.5917    3.0661   -4.9302 C   0  0  0  0  0  0  0  0  0  0  0  0
    3.4940    2.2150   -4.8681 C   0  0  0  0  0  0  0  0  0  0  0  0
    3.2018    1.5185   -3.7007 C   0  0  0  0  0  0  0  0  0  0  0  0
    2.7002    2.0379   -5.9635 O   0  0  0  0  0  0  0  0  0  0  0  0
    4.8802    3.6862   -6.1144 O   0  0  0  0  0  0  0  0  0  0  0  0
    6.4389    4.1226   -3.8413 O   0  0  0  0  0  0  0  0  0  0  0  0
    1.8370    1.3505    0.9293 O   0  0  0  0  0  0  0  0  0  0  0  0
   -0.4272   -0.6623    1.9339 O   0  0  0  0  0  0  0  0  0  0  0  0
   -0.9100   -0.4917    3.1865 C   0  0  0  0  0  0  0  0  0  0  0  0
   -0.2417   -0.2397    4.1773 O   0  0  0  0  0  0  0  0  0  0  0  0
   -2.3502   -0.8732    3.2319 C   0  0  0  0  0  0  0  0  0  0  0  0
   -2.7314   -1.5481    4.4112 C   0  0  0  0  0  0  0  0  0  0  0  0
   -4.0267   -2.0114    4.5576 C   0  0  0  0  0  0  0  0  0  0  0  0
   -4.9531   -1.8114    3.5501 C   0  0  0  0  0  0  0  0  0  0  0  0
   -4.5991   -1.1396    2.3817 C   0  0  0  0  0  0  0  0  0  0  0  0
   -3.2909   -0.6402    2.1910 C   0  0  0  0  0  0  0  0  0  0  0  0
   -2.9832    0.1524    0.9800 C   0  0  0  0  0  0  0  0  0  0  0  0
   -3.2348    1.5343    0.9654 C   0  0  0  0  0  0  0  0  0  0  0  0
   -3.0005    2.3067   -0.1721 C   0  0  0  0  0  0  0  0  0  0  0  0
   -2.4801    1.7234   -1.3176 C   0  0  0  0  0  0  0  0  0  0  0  0
   -2.2281    0.3613   -1.3573 C   0  0  0  0  0  0  0  0  0  0  0  0
   -2.4723   -0.4181   -0.2101 C   0  0  0  0  0  0  0  0  0  0  0  0
   -2.0907   -1.8448   -0.2463 C   0  0  0  0  0  0  0  0  0  0  0  0
   -2.8260   -2.7766    0.0123 O   0  0  0  0  0  0  0  0  0  0  0  0
   -0.7632   -1.8748   -0.4991 O   0  0  0  0  0  0  0  0  0  0  0  0
   -2.1876    2.4830   -2.4113 O   0  0  0  0  0  0  0  0  0  0  0  0
   -3.3258    3.6348   -0.1325 O   0  0  0  0  0  0  0  0  0  0  0  0
   -3.7386    2.1507    2.0811 O   0  0  0  0  0  0  0  0  0  0  0  0
   -5.6109   -1.0140    1.4553 O   0  0  0  0  0  0  0  0  0  0  0  0
   -6.2273   -2.2864    3.7179 O   0  0  0  0  0  0  0  0  0  0  0  0
   -4.3811   -2.6770    5.6921 O   0  0  0  0  0  0  0  0  0  0  0  0
    2.7061   -2.4234    2.2134 O   0  0  0  0  0  0  0  0  0  0  0  0
   -0.6129   -3.7469    0.4482 H   0  0  0  0  0  0  0  0  0  0  0  0
   -0.0108   -3.6268   -1.2264 H   0  0  0  0  0  0  0  0  0  0  0  0
    1.8843   -3.7715    0.2745 H   0  0  0  0  0  0  0  0  0  0  0  0
    0.7140   -2.8485    2.3325 H   0  0  0  0  0  0  0  0  0  0  0  0
    1.5078   -0.3073    2.6470 H   0  0  0  0  0  0  0  0  0  0  0  0
    0.5765    0.1936   -0.1283 H   0  0  0  0  0  0  0  0  0  0  0  0
    3.4253   -0.9121    0.3147 H   0  0  0  0  0  0  0  0  0  0  0  0
    5.7722    2.6921   -1.7666 H   0  0  0  0  0  0  0  0  0  0  0  0
    2.3442    0.8520   -3.6821 H   0  0  0  0  0  0  0  0  0  0  0  0
    3.0855    2.6139   -6.6548 H   0  0  0  0  0  0  0  0  0  0  0  0
    5.8465    3.8439   -6.1032 H   0  0  0  0  0  0  0  0  0  0  0  0
    6.0782    4.9716   -4.1637 H   0  0  0  0  0  0  0  0  0  0  0  0
    2.8157    1.3970    0.9318 H   0  0  0  0  0  0  0  0  0  0  0  0
   -2.0146   -1.7207    5.2120 H   0  0  0  0  0  0  0  0  0  0  0  0
   -1.8104   -0.0881   -2.2562 H   0  0  0  0  0  0  0  0  0  0  0  0
   -1.6183    3.2140   -2.1003 H   0  0  0  0  0  0  0  0  0  0  0  0
   -3.4351    3.9266   -1.0581 H   0  0  0  0  0  0  0  0  0  0  0  0
   -3.8352    3.0955    1.8391 H   0  0  0  0  0  0  0  0  0  0  0  0
   -5.2343   -0.6967    0.6140 H   0  0  0  0  0  0  0  0  0  0  0  0
   -6.6843   -2.0376    2.8860 H   0  0  0  0  0  0  0  0  0  0  0  0
   -5.3295   -2.8803    5.5695 H   0  0  0  0  0  0  0  0  0  0  0  0
    2.6814   -2.2296    3.1707 H   0  0  0  0  0  0  0  0  0  0  0  0
  1  2  1  0
  2  3  1  0
  3  4  1  0
  4  5  1  0
  5  6  1  0
  6  7  1  0
  6  8  1  0
  8  9  1  0
  9 10  2  0
  9 11  1  0
 11 12  2  0
 12 13  1  0
 13 14  2  0
 14 15  1  0
 15 16  2  0
 15 17  1  0
 14 18  1  0
 13 19  1  0
  5 20  1  0
  4 21  1  0
 21 22  1  0
 22 23  2  0
 22 24  1  0
 24 25  2  0
 25 26  1  0
 26 27  2  0
 27 28  1  0
 28 29  2  0
 29 30  1  0
 30 31  2  0
 31 32  1  0
 32 33  2  0
 33 34  1  0
 34 35  2  0
 35 36  1  0
 36 37  2  0
 36 38  1  0
 33 39  1  0
 32 40  1  0
 31 41  1  0
 28 42  1  0
 27 43  1  0
 26 44  1  0
  3 45  1  0
 38  1  1  0
  7  2  1  0
 16 11  1  0
 29 24  1  0
 35 30  1  0
  1 46  1  0
  1 47  1  0
  2 48  1  1
  3 49  1  1
  4 50  1  1
  5 51  1  6
  6 52  1  1
 12 53  1  0
 16 54  1  0
 17 55  1  0
 18 56  1  0
 19 57  1  0
 20 58  1  0
 25 59  1  0
 34 60  1  0
 39 61  1  0
 40 62  1  0
 41 63  1  0
 42 64  1  0
 43 65  1  0
 44 66  1  0
 45 67  1  0
M  END
$$$$
