
     RDKit          3D

 48 48  0  0  0  0  0  0  0  0999 V2000
   -4.1393    2.1355    2.3724 C   0  0  0  0  0  0  0  0  0  0  0  0
   -3.5400    2.2018    1.1323 C   0  0  0  0  0  0  0  0  0  0  0  0
   -4.5894    2.2540    0.2454 N   0  0  0  0  0  0  0  0  0  0  0  0
   -5.7449    2.1731    0.9694 C   0  0  0  0  0  0  0  0  0  0  0  0
   -5.5035    2.0996    2.2575 N   0  0  0  0  0  0  0  0  0  0  0  0
   -2.0989    2.2126    0.7324 C   0  0  0  0  0  0  0  0  0  0  0  0
   -1.7334    1.2247   -0.3915 C   0  0  1  0  0  0  0  0  0  0  0  0
   -0.2054    1.1817   -0.5838 C   0  0  0  0  0  0  0  0  0  0  0  0
    0.5310    2.1360   -0.3503 O   0  0  0  0  0  0  0  0  0  0  0  0
    0.2506    0.0234   -1.1706 N   0  0  0  0  0  0  0  0  0  0  0  0
    1.6614   -0.2203   -1.4660 C   0  0  1  0  0  0  0  0  0  0  0  0
    2.4109   -0.6562   -0.2009 C   0  0  0  0  0  0  0  0  0  0  0  0
    3.9326   -0.6624   -0.3820 C   0  0  0  0  0  0  0  0  0  0  0  0
    4.6436   -0.9996    0.9329 C   0  0  0  0  0  0  0  0  0  0  0  0
    6.1625   -1.1246    0.7899 C   0  0  0  0  0  0  0  0  0  0  0  0
    6.8078    0.1293    0.4220 N   0  0  0  0  0  0  0  0  0  0  0  0
    1.7057   -1.3085   -2.5358 C   0  0  0  0  0  0  0  0  0  0  0  0
    0.8919   -2.2105   -2.6766 O   0  0  0  0  0  0  0  0  0  0  0  0
    2.7691   -1.2119   -3.3569 O   0  0  0  0  0  0  0  0  0  0  0  0
   -2.2448   -0.1253   -0.1446 N   0  0  0  0  0  0  0  0  0  0  0  0
   -3.4279   -0.5702   -0.6965 C   0  0  0  0  0  0  0  0  0  0  0  0
   -4.0097    0.0077   -1.6099 O   0  0  0  0  0  0  0  0  0  0  0  0
   -3.9351   -1.8698   -0.0640 C   0  0  0  0  0  0  0  0  0  0  0  0
   -3.5051   -1.9468    1.3496 N   0  0  0  0  0  0  0  0  0  0  0  0
   -3.6585    2.0957    3.3418 H   0  0  0  0  0  0  0  0  0  0  0  0
   -4.5296    2.2430   -0.7662 H   0  0  0  0  0  0  0  0  0  0  0  0
   -6.7208    2.1638    0.5025 H   0  0  0  0  0  0  0  0  0  0  0  0
   -1.8231    3.2314    0.4317 H   0  0  0  0  0  0  0  0  0  0  0  0
   -1.4947    1.9835    1.6210 H   0  0  0  0  0  0  0  0  0  0  0  0
   -2.1522    1.5867   -1.3389 H   0  0  0  0  0  0  0  0  0  0  0  0
   -0.4144   -0.7353   -1.3095 H   0  0  0  0  0  0  0  0  0  0  0  0
    2.0761    0.7079   -1.8753 H   0  0  0  0  0  0  0  0  0  0  0  0
    2.1603    0.0220    0.6249 H   0  0  0  0  0  0  0  0  0  0  0  0
    2.0756   -1.6553    0.1070 H   0  0  0  0  0  0  0  0  0  0  0  0
    4.2552    0.3212   -0.7415 H   0  0  0  0  0  0  0  0  0  0  0  0
    4.2164   -1.3994   -1.1413 H   0  0  0  0  0  0  0  0  0  0  0  0
    4.2570   -1.9527    1.3149 H   0  0  0  0  0  0  0  0  0  0  0  0
    4.4045   -0.2397    1.6876 H   0  0  0  0  0  0  0  0  0  0  0  0
    6.5831   -1.4618    1.7436 H   0  0  0  0  0  0  0  0  0  0  0  0
    6.4100   -1.8887    0.0450 H   0  0  0  0  0  0  0  0  0  0  0  0
    6.5322    0.8627    1.0745 H   0  0  0  0  0  0  0  0  0  0  0  0
    6.4865    0.4337   -0.4954 H   0  0  0  0  0  0  0  0  0  0  0  0
    2.6601   -1.9549   -3.9875 H   0  0  0  0  0  0  0  0  0  0  0  0
   -1.9970   -0.5969    0.7257 H   0  0  0  0  0  0  0  0  0  0  0  0
   -3.5253   -2.7132   -0.6269 H   0  0  0  0  0  0  0  0  0  0  0  0
   -5.0277   -1.8884   -0.1157 H   0  0  0  0  0  0  0  0  0  0  0  0
   -3.8571   -2.8233    1.7387 H   0  0  0  0  0  0  0  0  0  0  0  0
   -4.0061   -1.2149    1.8652 H   0  0  0  0  0  0  0  0  0  0  0  0
  1  2  2  0
  2  3  1  0
  3  4  1  0
  4  5  2  0
  2  6  1  0
  6  7  1  0
  7  8  1  0
  8  9  2  0
  8 10  1  0
 10 11  1  0
 11 12  1  0
 12 13  1  0
 13 14  1  0
 14 15  1  0
 15 16  1  0
 11 17  1  0
 17 18  2  0
 17 19  1  0
  7 20  1  0
 20 21  1  0
 21 22  2  0
 21 23  1  0
 23 24  1  0
  5  1  1  0
  1 25  1  0
  3 26  1  0
  4 27  1  0
  6 28  1  0
  6 29  1  0
  7 30  1  6
 10 31  1  0
 11 32  1  6
 12 33  1  0
 12 34  1  0
 13 35  1  0
 13 36  1  0
 14 37  1  0
 14 38  1  0
 15 39  1  0
 15 40  1  0
 16 41  1  0
 16 42  1  0
 19 43  1  0
 20 44  1  0
 23 45  1  0
 23 46  1  0
 24 47  1  0
 24 48  1  0
M  END
$$$$
