
     RDKit          3D

 82 86  0  0  0  0  0  0  0  0999 V2000
    0.5580   -1.1967   -2.1790 C   0  0  0  0  0  0  0  0  0  0  0  0
    0.6602   -0.9410   -0.6406 C   0  0  1  0  0  0  0  0  0  0  0  0
    1.5938   -2.0369   -0.0742 C   0  0  0  0  0  0  0  0  0  0  0  0
    3.0770   -1.7985   -0.3843 C   0  0  0  0  0  0  0  0  0  0  0  0
    3.5309   -0.4770    0.2693 C   0  0  2  0  0  0  0  0  0  0  0  0
    2.7973    0.7447   -0.4069 C   0  0  1  0  0  0  0  0  0  0  0  0
    1.2293    0.5014   -0.3333 C   0  0  1  0  0  0  0  0  0  0  0  0
    0.3639    1.5580   -1.0505 C   0  0  0  0  0  0  0  0  0  0  0  0
   -1.1088    1.2963   -0.9213 C   0  0  0  0  0  0  0  0  0  0  0  0
   -1.6671    0.1668   -0.4188 C   0  0  0  0  0  0  0  0  0  0  0  0
   -0.8131   -1.0209    0.0458 C   0  0  1  0  0  0  0  0  0  0  0  0
   -1.5352   -2.3314   -0.3511 C   0  0  0  0  0  0  0  0  0  0  0  0
   -2.9114   -2.4441    0.2936 C   0  0  0  0  0  0  0  0  0  0  0  0
   -3.8778   -1.3436   -0.1807 C   0  0  2  0  0  0  0  0  0  0  0  0
   -3.2129    0.0701   -0.3865 C   0  0  1  0  0  0  0  0  0  0  0  0
   -3.7898    1.1362    0.5909 C   0  0  0  0  0  0  0  0  0  0  0  0
   -5.3412    1.2685    0.5138 C   0  0  0  0  0  0  0  0  0  0  0  0
   -6.0159   -0.1244    0.5744 C   0  0  0  0  0  0  0  0  0  0  0  0
   -5.0281   -1.2516    0.8749 C   0  0  0  0  0  0  0  0  0  0  0  0
   -5.8008    2.1201    1.7238 C   0  0  0  0  0  0  0  0  0  0  0  0
   -5.7585    2.0182   -0.7849 C   0  0  0  0  0  0  0  0  0  0  0  0
   -4.4506   -1.8380   -1.5299 C   0  0  0  0  0  0  0  0  0  0  0  0
   -4.1293   -1.4783   -2.6523 O   0  0  0  0  0  0  0  0  0  0  0  0
   -5.3706   -2.8200   -1.3915 O   0  0  0  0  0  0  0  0  0  0  0  0
   -0.7300   -0.9778    1.6119 C   0  0  0  0  0  0  0  0  0  0  0  0
    3.1336    2.0082    0.4616 C   0  0  0  0  0  0  0  0  0  0  0  0
    4.6311    2.2107    0.7271 C   0  0  2  0  0  0  0  0  0  0  0  0
    5.3223    0.9749    1.3298 C   0  0  1  0  0  0  0  0  0  0  0  0
    5.0835   -0.3331    0.5093 C   0  0  0  0  0  0  0  0  0  0  0  0
    5.5670   -1.5402    1.3674 C   0  0  0  0  0  0  0  0  0  0  0  0
    5.9322   -0.3561   -0.7783 C   0  0  0  0  0  0  0  0  0  0  0  0
    6.6990    1.3200    1.4914 O   0  0  0  0  0  0  0  0  0  0  0  0
    4.7811    3.2989    1.6526 O   0  0  0  0  0  0  0  0  0  0  0  0
    3.2716    1.0348   -1.8476 C   0  0  0  0  0  0  0  0  0  0  0  0
    0.3750   -2.2576   -2.3949 H   0  0  0  0  0  0  0  0  0  0  0  0
    1.4798   -0.9366   -2.7078 H   0  0  0  0  0  0  0  0  0  0  0  0
   -0.2534   -0.6388   -2.6548 H   0  0  0  0  0  0  0  0  0  0  0  0
    1.4905   -2.1237    1.0103 H   0  0  0  0  0  0  0  0  0  0  0  0
    1.3189   -3.0244   -0.4738 H   0  0  0  0  0  0  0  0  0  0  0  0
    3.6184   -2.6563    0.0254 H   0  0  0  0  0  0  0  0  0  0  0  0
    3.2652   -1.8128   -1.4572 H   0  0  0  0  0  0  0  0  0  0  0  0
    3.1138   -0.5130    1.2926 H   0  0  0  0  0  0  0  0  0  0  0  0
    1.0268    0.6871    0.7327 H   0  0  0  0  0  0  0  0  0  0  0  0
    0.5653    2.5594   -0.6521 H   0  0  0  0  0  0  0  0  0  0  0  0
    0.5880    1.5964   -2.1188 H   0  0  0  0  0  0  0  0  0  0  0  0
   -1.7452    2.0927   -1.3039 H   0  0  0  0  0  0  0  0  0  0  0  0
   -1.6475   -2.4095   -1.4323 H   0  0  0  0  0  0  0  0  0  0  0  0
   -0.9421   -3.1957   -0.0373 H   0  0  0  0  0  0  0  0  0  0  0  0
   -2.8176   -2.4223    1.3863 H   0  0  0  0  0  0  0  0  0  0  0  0
   -3.3146   -3.4451    0.0713 H   0  0  0  0  0  0  0  0  0  0  0  0
   -3.5217    0.4227   -1.3869 H   0  0  0  0  0  0  0  0  0  0  0  0
   -3.4792    0.8864    1.6149 H   0  0  0  0  0  0  0  0  0  0  0  0
   -3.3476    2.1301    0.4026 H   0  0  0  0  0  0  0  0  0  0  0  0
   -6.5326   -0.3607   -0.3583 H   0  0  0  0  0  0  0  0  0  0  0  0
   -6.7939   -0.1363    1.3476 H   0  0  0  0  0  0  0  0  0  0  0  0
   -4.6043   -1.0964    1.8728 H   0  0  0  0  0  0  0  0  0  0  0  0
   -5.5861   -2.2004    0.9413 H   0  0  0  0  0  0  0  0  0  0  0  0
   -5.3587    3.1265    1.6886 H   0  0  0  0  0  0  0  0  0  0  0  0
   -6.8920    2.2312    1.7281 H   0  0  0  0  0  0  0  0  0  0  0  0
   -5.5033    1.6552    2.6719 H   0  0  0  0  0  0  0  0  0  0  0  0
   -6.4258    1.4179   -1.4211 H   0  0  0  0  0  0  0  0  0  0  0  0
   -6.2952    2.9490   -0.5590 H   0  0  0  0  0  0  0  0  0  0  0  0
   -4.8902    2.2930   -1.4016 H   0  0  0  0  0  0  0  0  0  0  0  0
   -5.5994   -3.0349   -2.3226 H   0  0  0  0  0  0  0  0  0  0  0  0
   -0.6806   -1.9917    2.0364 H   0  0  0  0  0  0  0  0  0  0  0  0
    0.1537   -0.4573    2.0071 H   0  0  0  0  0  0  0  0  0  0  0  0
   -1.6034   -0.4763    2.0631 H   0  0  0  0  0  0  0  0  0  0  0  0
    2.6342    1.9424    1.4460 H   0  0  0  0  0  0  0  0  0  0  0  0
    2.7331    2.9223    0.0065 H   0  0  0  0  0  0  0  0  0  0  0  0
    5.1417    2.5337   -0.1805 H   0  0  0  0  0  0  0  0  0  0  0  0
    4.9254    0.8328    2.3526 H   0  0  0  0  0  0  0  0  0  0  0  0
    6.5991   -1.4210    1.7026 H   0  0  0  0  0  0  0  0  0  0  0  0
    4.9448   -1.6714    2.2637 H   0  0  0  0  0  0  0  0  0  0  0  0
    5.5424   -2.4788    0.8027 H   0  0  0  0  0  0  0  0  0  0  0  0
    6.1516    0.6557   -1.1564 H   0  0  0  0  0  0  0  0  0  0  0  0
    6.9126   -0.8192   -0.5996 H   0  0  0  0  0  0  0  0  0  0  0  0
    5.4513   -0.9277   -1.5841 H   0  0  0  0  0  0  0  0  0  0  0  0
    7.1881    0.5225    1.7929 H   0  0  0  0  0  0  0  0  0  0  0  0
    5.7261    3.2698    1.9182 H   0  0  0  0  0  0  0  0  0  0  0  0
    3.1700    0.1715   -2.5058 H   0  0  0  0  0  0  0  0  0  0  0  0
    2.7106    1.8741   -2.2962 H   0  0  0  0  0  0  0  0  0  0  0  0
    4.3174    1.3500   -1.8990 H   0  0  0  0  0  0  0  0  0  0  0  0
  2  1  1  6
  2  3  1  0
  3  4  1  0
  4  5  1  0
  5  6  1  0
  6  7  1  0
  7  8  1  0
  8  9  1  0
  9 10  2  0
 10 11  1  0
 11 12  1  0
 12 13  1  0
 13 14  1  0
 14 15  1  0
 15 16  1  0
 16 17  1  0
 17 18  1  0
 18 19  1  0
 17 20  1  0
 17 21  1  0
 14 22  1  6
 22 23  2  0
 22 24  1  0
 11 25  1  1
  6 26  1  0
 26 27  1  0
 27 28  1  0
 28 29  1  0
 29 30  1  0
 29 31  1  0
 28 32  1  0
 27 33  1  0
  6 34  1  6
  7  2  1  0
 11  2  1  0
 29  5  1  0
 15 10  1  0
 19 14  1  0
  1 35  1  0
  1 36  1  0
  1 37  1  0
  3 38  1  0
  3 39  1  0
  4 40  1  0
  4 41  1  0
  5 42  1  1
  7 43  1  1
  8 44  1  0
  8 45  1  0
  9 46  1  0
 12 47  1  0
 12 48  1  0
 13 49  1  0
 13 50  1  0
 15 51  1  6
 16 52  1  0
 16 53  1  0
 18 54  1  0
 18 55  1  0
 19 56  1  0
 19 57  1  0
 20 58  1  0
 20 59  1  0
 20 60  1  0
 21 61  1  0
 21 62  1  0
 21 63  1  0
 24 64  1  0
 25 65  1  0
 25 66  1  0
 25 67  1  0
 26 68  1  0
 26 69  1  0
 27 70  1  6
 28 71  1  1
 30 72  1  0
 30 73  1  0
 30 74  1  0
 31 75  1  0
 31 76  1  0
 31 77  1  0
 32 78  1  0
 33 79  1  0
 34 80  1  0
 34 81  1  0
 34 82  1  0
M  END
$$$$
