
     RDKit          3D

 21 21  0  0  0  0  0  0  0  0999 V2000
    3.8311   -0.1946   -0.7801 C   0  0  0  0  0  0  0  0  0  0  0  0
    2.4609    0.1619   -0.5756 O   0  0  0  0  0  0  0  0  0  0  0  0
    1.6337   -0.8549   -0.2282 C   0  0  0  0  0  0  0  0  0  0  0  0
    1.9509   -2.0240   -0.0725 O   0  0  0  0  0  0  0  0  0  0  0  0
    0.2350   -0.3676   -0.0784 C   0  0  0  0  0  0  0  0  0  0  0  0
   -0.7698   -1.3170    0.1836 C   0  0  0  0  0  0  0  0  0  0  0  0
   -2.0950   -0.9045    0.3236 C   0  0  0  0  0  0  0  0  0  0  0  0
   -2.4207    0.4444    0.2041 C   0  0  0  0  0  0  0  0  0  0  0  0
   -1.4238    1.3826   -0.0569 C   0  0  0  0  0  0  0  0  0  0  0  0
   -0.0963    0.9915   -0.1988 C   0  0  0  0  0  0  0  0  0  0  0  0
   -1.8067    2.6910   -0.1771 O   0  0  0  0  0  0  0  0  0  0  0  0
   -3.7174    0.8686    0.3169 O   0  0  0  0  0  0  0  0  0  0  0  0
   -3.0752   -1.8215    0.5769 O   0  0  0  0  0  0  0  0  0  0  0  0
    4.1381   -1.0933   -0.2300 H   0  0  0  0  0  0  0  0  0  0  0  0
    4.4556    0.6436   -0.4427 H   0  0  0  0  0  0  0  0  0  0  0  0
    4.0001   -0.3430   -1.8528 H   0  0  0  0  0  0  0  0  0  0  0  0
   -0.5087   -2.3655    0.2946 H   0  0  0  0  0  0  0  0  0  0  0  0
    0.6684    1.7299   -0.4091 H   0  0  0  0  0  0  0  0  0  0  0  0
   -1.0046    3.2471   -0.1623 H   0  0  0  0  0  0  0  0  0  0  0  0
   -3.6895    1.8272    0.1307 H   0  0  0  0  0  0  0  0  0  0  0  0
   -2.7662   -2.7020    0.2960 H   0  0  0  0  0  0  0  0  0  0  0  0
  1  2  1  0
  2  3  1  0
  3  4  2  0
  3  5  1  0
  5  6  2  0
  6  7  1  0
  7  8  2  0
  8  9  1  0
  9 10  2  0
  9 11  1  0
  8 12  1  0
  7 13  1  0
 10  5  1  0
  1 14  1  0
  1 15  1  0
  1 16  1  0
  6 17  1  0
 10 18  1  0
 11 19  1  0
 12 20  1  0
 13 21  1  0
M  END
$$$$
