
     RDKit          3D

 14 13  0  0  0  0  0  0  0  0999 V2000
   -0.8046    0.2956    0.8860 C   0  0  0  0  0  0  0  0  0  0  0  0
    0.4647    0.6282    0.0949 C   0  0  0  0  0  0  0  0  0  0  0  0
    0.9503   -0.5523   -0.7505 C   0  0  0  0  0  0  0  0  0  0  0  0
    1.3342   -1.6456    0.0765 O   0  0  0  0  0  0  0  0  0  0  0  0
    0.1887    1.7410   -0.7656 O   0  0  0  0  0  0  0  0  0  0  0  0
   -1.8959    0.1292   -0.0271 O   0  0  0  0  0  0  0  0  0  0  0  0
   -1.0638    1.1307    1.5448 H   0  0  0  0  0  0  0  0  0  0  0  0
   -0.6903   -0.6131    1.4842 H   0  0  0  0  0  0  0  0  0  0  0  0
    1.2539    0.9215    0.7959 H   0  0  0  0  0  0  0  0  0  0  0  0
    0.1737   -0.8865   -1.4472 H   0  0  0  0  0  0  0  0  0  0  0  0
    1.8149   -0.2489   -1.3513 H   0  0  0  0  0  0  0  0  0  0  0  0
    1.6530   -2.3457   -0.5197 H   0  0  0  0  0  0  0  0  0  0  0  0
   -0.7123    1.5717   -1.1100 H   0  0  0  0  0  0  0  0  0  0  0  0
   -2.6665   -0.1259    0.5112 H   0  0  0  0  0  0  0  0  0  0  0  0
  1  2  1  0
  2  3  1  0
  3  4  1  0
  2  5  1  0
  1  6  1  0
  1  7  1  0
  1  8  1  0
  2  9  1  0
  3 10  1  0
  3 11  1  0
  4 12  1  0
  5 13  1  0
  6 14  1  0
M  END
$$$$
