
     RDKit          3D

 44 47  0  0  0  0  0  0  0  0999 V2000
    2.2661    1.7339   -1.2460 C   0  0  0  0  0  0  0  0  0  0  0  0
    2.2450    1.6522    0.2814 C   0  0  2  0  0  0  0  0  0  0  0  0
    3.4003    2.5023    0.8064 C   0  0  0  0  0  0  0  0  0  0  0  0
    3.3360    3.7308    0.8703 O   0  0  0  0  0  0  0  0  0  0  0  0
    4.5603    1.8372    1.1190 N   0  0  0  0  0  0  0  0  0  0  0  0
    4.6989    0.4846    1.1924 N   0  0  0  0  0  0  0  0  0  0  0  0
    3.6252   -0.2318    1.0227 C   0  0  0  0  0  0  0  0  0  0  0  0
    2.3686    0.2552    0.7164 N   0  0  0  0  0  0  0  0  0  0  0  0
    1.2684   -0.6183    0.7488 C   0  0  0  0  0  0  0  0  0  0  0  0
    1.4396   -1.9358    1.2030 C   0  0  0  0  0  0  0  0  0  0  0  0
    0.3598   -2.8124    1.3097 C   0  0  0  0  0  0  0  0  0  0  0  0
   -0.9333   -2.4208    0.9254 C   0  0  0  0  0  0  0  0  0  0  0  0
   -1.1390   -1.1205    0.4299 C   0  0  0  0  0  0  0  0  0  0  0  0
   -0.0367   -0.2417    0.3804 C   0  0  0  0  0  0  0  0  0  0  0  0
   -2.4449   -0.6783    0.1014 N   0  0  0  0  0  0  0  0  0  0  0  0
   -2.8714    0.6066   -0.4192 C   0  0  0  0  0  0  0  0  0  0  0  0
   -4.2127    0.4953   -1.2074 C   0  0  0  0  0  0  0  0  0  0  0  0
   -3.6246    1.3099   -2.2926 N   0  0  0  0  0  0  0  0  0  0  0  0
   -2.2721    0.9616   -1.8074 C   0  0  0  0  0  0  0  0  0  0  0  0
   -2.8977    1.6730    0.6673 C   0  0  0  0  0  0  0  0  0  0  0  0
   -2.0599   -3.4058    1.1086 C   0  0  0  0  0  0  0  0  0  0  0  0
   -1.6623   -4.7043    0.9829 F   0  0  0  0  0  0  0  0  0  0  0  0
   -2.6453   -3.3140    2.3341 F   0  0  0  0  0  0  0  0  0  0  0  0
   -3.0680   -3.2492    0.1995 F   0  0  0  0  0  0  0  0  0  0  0  0
    2.6395   -2.4496    1.6238 O   0  0  0  0  0  0  0  0  0  0  0  0
    3.7700   -1.7489    1.1330 C   0  0  0  0  0  0  0  0  0  0  0  0
    2.1916    2.7744   -1.5808 H   0  0  0  0  0  0  0  0  0  0  0  0
    1.4380    1.1781   -1.6959 H   0  0  0  0  0  0  0  0  0  0  0  0
    3.1975    1.3242   -1.6542 H   0  0  0  0  0  0  0  0  0  0  0  0
    1.3355    2.1071    0.6908 H   0  0  0  0  0  0  0  0  0  0  0  0
    5.3569    2.3919    1.4156 H   0  0  0  0  0  0  0  0  0  0  0  0
    0.5332   -3.8145    1.7017 H   0  0  0  0  0  0  0  0  0  0  0  0
   -0.2148    0.7683    0.0341 H   0  0  0  0  0  0  0  0  0  0  0  0
   -3.0444   -1.4451   -0.2145 H   0  0  0  0  0  0  0  0  0  0  0  0
   -5.0917    0.9433   -0.7323 H   0  0  0  0  0  0  0  0  0  0  0  0
   -4.4893   -0.5124   -1.5416 H   0  0  0  0  0  0  0  0  0  0  0  0
   -3.8402    2.3042   -2.2097 H   0  0  0  0  0  0  0  0  0  0  0  0
   -1.5616    1.7943   -1.8229 H   0  0  0  0  0  0  0  0  0  0  0  0
   -1.8278    0.1227   -2.3570 H   0  0  0  0  0  0  0  0  0  0  0  0
   -3.2821    2.6252    0.2847 H   0  0  0  0  0  0  0  0  0  0  0  0
   -1.9022    1.8714    1.0744 H   0  0  0  0  0  0  0  0  0  0  0  0
   -3.5442    1.3686    1.4980 H   0  0  0  0  0  0  0  0  0  0  0  0
    4.0225   -2.1379    0.1389 H   0  0  0  0  0  0  0  0  0  0  0  0
    4.6131   -1.9753    1.7951 H   0  0  0  0  0  0  0  0  0  0  0  0
  1  2  1  0
  2  3  1  0
  3  4  2  0
  3  5  1  0
  5  6  1  0
  6  7  2  0
  7  8  1  0
  8  9  1  0
  9 10  2  0
 10 11  1  0
 11 12  2  0
 12 13  1  0
 13 14  2  0
 13 15  1  0
 15 16  1  0
 16 17  1  0
 17 18  1  0
 18 19  1  0
 16 20  1  0
 12 21  1  0
 21 22  1  0
 21 23  1  0
 21 24  1  0
 10 25  1  0
 25 26  1  0
  8  2  1  0
 26  7  1  0
 14  9  1  0
 19 16  1  0
  1 27  1  0
  1 28  1  0
  1 29  1  0
  2 30  1  1
  5 31  1  0
 11 32  1  0
 14 33  1  0
 15 34  1  0
 17 35  1  0
 17 36  1  0
 18 37  1  0
 19 38  1  0
 19 39  1  0
 20 40  1  0
 20 41  1  0
 20 42  1  0
 26 43  1  0
 26 44  1  0
M  END
$$$$
