
     RDKit          3D

 47 50  0  0  0  0  0  0  0  0999 V2000
   -4.5758   -0.7194    1.4102 C   0  0  0  0  0  0  0  0  0  0  0  0
   -3.9991   -0.1786    0.1680 N   0  0  0  0  0  0  0  0  0  0  0  0
   -4.8321   -0.2309   -1.0214 C   0  0  0  0  0  0  0  0  0  0  0  0
   -6.0700   -0.9299   -0.9528 C   0  0  0  0  0  0  0  0  0  0  0  0
   -6.9845   -0.9887   -2.0165 C   0  0  0  0  0  0  0  0  0  0  0  0
   -6.6982   -0.3322   -3.2001 C   0  0  0  0  0  0  0  0  0  0  0  0
   -5.4805    0.3414   -3.3199 C   0  0  0  0  0  0  0  0  0  0  0  0
   -4.5495    0.3640   -2.2644 C   0  0  0  0  0  0  0  0  0  0  0  0
   -3.4221    1.0363   -2.6230 O   0  0  0  0  0  0  0  0  0  0  0  0
   -2.2416    0.4145   -2.1563 C   0  0  0  0  0  0  0  0  0  0  0  0
   -1.9391    1.0142   -0.8094 C   0  0  1  0  0  0  0  0  0  0  0  0
   -2.6949    0.2897    0.3051 C   0  0  0  0  0  0  0  0  0  0  0  0
   -2.0990    0.1692    1.3962 O   0  0  0  0  0  0  0  0  0  0  0  0
   -0.5167    0.9106   -0.4713 N   0  0  0  0  0  0  0  0  0  0  0  0
    0.4659    1.6679   -1.0751 C   0  0  0  0  0  0  0  0  0  0  0  0
    0.2484    2.3958   -2.0424 O   0  0  0  0  0  0  0  0  0  0  0  0
    1.7882    1.5087   -0.4293 C   0  0  0  0  0  0  0  0  0  0  0  0
    2.9505    1.9221   -0.9594 N   0  0  0  0  0  0  0  0  0  0  0  0
    3.8426    1.5175   -0.0389 N   0  0  0  0  0  0  0  0  0  0  0  0
    3.2353    0.9121    1.0226 C   0  0  0  0  0  0  0  0  0  0  0  0
    1.9381    0.8719    0.7976 N   0  0  0  0  0  0  0  0  0  0  0  0
    3.9718    0.4214    2.2197 C   0  0  0  0  0  0  0  0  0  0  0  0
    5.2401   -0.3293    1.8921 C   0  0  0  0  0  0  0  0  0  0  0  0
    5.1767   -1.6066    1.3097 C   0  0  0  0  0  0  0  0  0  0  0  0
    6.3451   -2.3013    0.9954 C   0  0  0  0  0  0  0  0  0  0  0  0
    7.5866   -1.7278    1.2609 C   0  0  0  0  0  0  0  0  0  0  0  0
    7.6622   -0.4612    1.8450 C   0  0  0  0  0  0  0  0  0  0  0  0
    6.4955    0.2386    2.1550 C   0  0  0  0  0  0  0  0  0  0  0  0
   -5.5757   -0.2863    1.5789 H   0  0  0  0  0  0  0  0  0  0  0  0
   -3.9946   -0.4634    2.3029 H   0  0  0  0  0  0  0  0  0  0  0  0
   -4.6186   -1.8162    1.3418 H   0  0  0  0  0  0  0  0  0  0  0  0
   -6.3727   -1.4746   -0.0614 H   0  0  0  0  0  0  0  0  0  0  0  0
   -7.9254   -1.5431   -1.9041 H   0  0  0  0  0  0  0  0  0  0  0  0
   -7.3939   -0.3563   -4.0260 H   0  0  0  0  0  0  0  0  0  0  0  0
   -5.2369    0.8482   -4.2544 H   0  0  0  0  0  0  0  0  0  0  0  0
   -1.4620    0.6535   -2.8892 H   0  0  0  0  0  0  0  0  0  0  0  0
   -2.3130   -0.6808   -2.1455 H   0  0  0  0  0  0  0  0  0  0  0  0
   -2.2153    2.0752   -0.7628 H   0  0  0  0  0  0  0  0  0  0  0  0
   -0.2876    0.5723    0.4662 H   0  0  0  0  0  0  0  0  0  0  0  0
    4.8301    1.6690   -0.2007 H   0  0  0  0  0  0  0  0  0  0  0  0
    4.1979    1.2793    2.8637 H   0  0  0  0  0  0  0  0  0  0  0  0
    3.3206   -0.2362    2.8111 H   0  0  0  0  0  0  0  0  0  0  0  0
    4.2130   -2.0698    1.0996 H   0  0  0  0  0  0  0  0  0  0  0  0
    6.2868   -3.2923    0.5455 H   0  0  0  0  0  0  0  0  0  0  0  0
    8.4963   -2.2714    1.0155 H   0  0  0  0  0  0  0  0  0  0  0  0
    8.6317   -0.0213    2.0612 H   0  0  0  0  0  0  0  0  0  0  0  0
    6.5753    1.2239    2.6106 H   0  0  0  0  0  0  0  0  0  0  0  0
  1  2  1  0
  2  3  1  0
  3  4  2  0
  4  5  1  0
  5  6  2  0
  6  7  1  0
  7  8  2  0
  8  9  1  0
  9 10  1  0
 10 11  1  0
 11 12  1  0
 12 13  2  0
 11 14  1  0
 14 15  1  0
 15 16  2  0
 15 17  1  0
 17 18  2  0
 18 19  1  0
 19 20  1  0
 20 21  2  0
 20 22  1  0
 22 23  1  0
 23 24  2  0
 24 25  1  0
 25 26  2  0
 26 27  1  0
 27 28  2  0
 12  2  1  0
  8  3  1  0
 21 17  1  0
 28 23  1  0
  1 29  1  0
  1 30  1  0
  1 31  1  0
  4 32  1  0
  5 33  1  0
  6 34  1  0
  7 35  1  0
 10 36  1  0
 10 37  1  0
 11 38  1  6
 14 39  1  0
 19 40  1  0
 22 41  1  0
 22 42  1  0
 24 43  1  0
 25 44  1  0
 26 45  1  0
 27 46  1  0
 28 47  1  0
M  END
$$$$
