
     RDKit          3D

  4  3  0  0  0  0  0  0  0  0999 V2000
    0.5808   -0.4339    0.2142 O   0  0  0  0  0  0  0  0  0  0  0  0
   -0.5782    0.4440    0.2002 O   0  0  0  0  0  0  0  0  0  0  0  0
    1.1990    0.1846   -0.2195 H   0  0  0  0  0  0  0  0  0  0  0  0
   -1.2016   -0.1947   -0.1949 H   0  0  0  0  0  0  0  0  0  0  0  0
  1  2  1  0
  1  3  1  0
  2  4  1  0
M  END
$$$$
