
     RDKit          3D

 26 26  0  0  0  0  0  0  0  0999 V2000
    1.3454    2.1132   -0.6253 C   0  0  0  0  0  0  0  0  0  0  0  0
    0.1916    1.1937   -0.3309 C   0  0  0  0  0  0  0  0  0  0  0  0
   -1.0433    1.7736    0.0091 C   0  0  0  0  0  0  0  0  0  0  0  0
   -2.1611    0.9777    0.2659 C   0  0  0  0  0  0  0  0  0  0  0  0
   -2.0909   -0.4157    0.1995 C   0  0  0  0  0  0  0  0  0  0  0  0
   -0.8634   -0.9996   -0.1517 C   0  0  0  0  0  0  0  0  0  0  0  0
    0.2887   -0.2139   -0.3781 C   0  0  0  0  0  0  0  0  0  0  0  0
    1.5545   -0.9342   -0.6747 C   0  0  0  0  0  0  0  0  0  0  0  0
    1.5667   -2.0149   -1.2493 O   0  0  0  0  0  0  0  0  0  0  0  0
    2.6281   -0.3020   -0.1476 O   0  0  0  0  0  0  0  0  0  0  0  0
    3.8642   -0.9916   -0.3392 C   0  0  0  0  0  0  0  0  0  0  0  0
   -0.8430   -2.3716   -0.2645 O   0  0  0  0  0  0  0  0  0  0  0  0
   -3.3085   -1.2678    0.4306 C   0  0  0  0  0  0  0  0  0  0  0  0
   -3.3551    1.5670    0.5759 O   0  0  0  0  0  0  0  0  0  0  0  0
    2.0150    2.1742    0.2379 H   0  0  0  0  0  0  0  0  0  0  0  0
    1.8994    1.7767   -1.5076 H   0  0  0  0  0  0  0  0  0  0  0  0
    0.9962    3.1274   -0.8495 H   0  0  0  0  0  0  0  0  0  0  0  0
   -1.1278    2.8566    0.0610 H   0  0  0  0  0  0  0  0  0  0  0  0
    4.6604   -0.3898    0.1074 H   0  0  0  0  0  0  0  0  0  0  0  0
    3.8413   -1.9642    0.1622 H   0  0  0  0  0  0  0  0  0  0  0  0
    4.0762   -1.1097   -1.4065 H   0  0  0  0  0  0  0  0  0  0  0  0
   -0.0181   -2.6447   -0.7210 H   0  0  0  0  0  0  0  0  0  0  0  0
   -3.0487   -2.1920    0.9574 H   0  0  0  0  0  0  0  0  0  0  0  0
   -4.0500   -0.7587    1.0546 H   0  0  0  0  0  0  0  0  0  0  0  0
   -3.7732   -1.5209   -0.5274 H   0  0  0  0  0  0  0  0  0  0  0  0
   -3.2448    2.5313    0.5871 H   0  0  0  0  0  0  0  0  0  0  0  0
  1  2  1  0
  2  3  2  0
  3  4  1  0
  4  5  2  0
  5  6  1  0
  6  7  2  0
  7  8  1  0
  8  9  2  0
  8 10  1  0
 10 11  1  0
  6 12  1  0
  5 13  1  0
  4 14  1  0
  7  2  1  0
  1 15  1  0
  1 16  1  0
  1 17  1  0
  3 18  1  0
 11 19  1  0
 11 20  1  0
 11 21  1  0
 12 22  1  0
 13 23  1  0
 13 24  1  0
 13 25  1  0
 14 26  1  0
M  END
$$$$
