
     RDKit          3D

 10  9  0  0  0  0  0  0  0  0999 V2000
    1.5229    0.1868   -0.4467 C   0  0  0  0  0  0  0  0  0  0  0  0
    0.6024   -0.7122   -0.0782 C   0  0  0  0  0  0  0  0  0  0  0  0
   -0.6669   -0.3903    0.5284 C   0  0  0  0  0  0  0  0  0  0  0  0
   -1.4771    0.5965    0.1269 C   0  0  0  0  0  0  0  0  0  0  0  0
    1.3673    1.2540   -0.3255 H   0  0  0  0  0  0  0  0  0  0  0  0
    2.4664   -0.1344   -0.8761 H   0  0  0  0  0  0  0  0  0  0  0  0
    0.8201   -1.7728   -0.1887 H   0  0  0  0  0  0  0  0  0  0  0  0
   -0.9848   -1.0436    1.3386 H   0  0  0  0  0  0  0  0  0  0  0  0
   -1.2206    1.2532   -0.6982 H   0  0  0  0  0  0  0  0  0  0  0  0
   -2.4297    0.7627    0.6195 H   0  0  0  0  0  0  0  0  0  0  0  0
  1  2  2  3
  2  3  1  0
  3  4  2  3
  1  5  1  0
  1  6  1  0
  2  7  1  0
  3  8  1  0
  4  9  1  0
  4 10  1  0
M  END
$$$$
