
     RDKit          3D

 39 38  0  0  0  0  0  0  0  0999 V2000
   -0.6190    0.5961   -0.2633 C   0  0  0  0  0  0  0  0  0  0  0  0
    0.4960   -0.4500   -0.3298 C   0  0  0  0  0  0  0  0  0  0  0  0
    1.8359    0.1389    0.1208 C   0  0  0  0  0  0  0  0  0  0  0  0
    2.9506   -0.9075    0.0555 C   0  0  0  0  0  0  0  0  0  0  0  0
    4.2899   -0.4030    0.5990 C   0  0  0  0  0  0  0  0  0  0  0  0
    4.8980    0.7240   -0.2348 C   0  0  0  0  0  0  0  0  0  0  0  0
    6.2732    1.0941    0.2529 C   0  0  0  0  0  0  0  0  0  0  0  0
    6.8588    0.6605    1.2296 O   0  0  0  0  0  0  0  0  0  0  0  0
    6.8494    2.0253   -0.5331 O   0  0  0  0  0  0  0  0  0  0  0  0
   -1.9591    0.0968   -0.8126 C   0  0  0  0  0  0  0  0  0  0  0  0
   -2.5636   -1.0467    0.0085 C   0  0  0  0  0  0  0  0  0  0  0  0
   -3.9708   -1.4360   -0.4599 C   0  0  0  0  0  0  0  0  0  0  0  0
   -5.1071   -0.8115    0.3530 C   0  0  0  0  0  0  0  0  0  0  0  0
   -5.1815    0.7055    0.2763 C   0  0  0  0  0  0  0  0  0  0  0  0
   -6.3500    1.1400    0.9608 O   0  0  0  0  0  0  0  0  0  0  0  0
   -0.7497    0.9328    0.7724 H   0  0  0  0  0  0  0  0  0  0  0  0
   -0.3191    1.4765   -0.8453 H   0  0  0  0  0  0  0  0  0  0  0  0
    0.5874   -0.8261   -1.3559 H   0  0  0  0  0  0  0  0  0  0  0  0
    0.2474   -1.3041    0.3100 H   0  0  0  0  0  0  0  0  0  0  0  0
    2.0850    0.9928   -0.5189 H   0  0  0  0  0  0  0  0  0  0  0  0
    1.7443    0.5155    1.1467 H   0  0  0  0  0  0  0  0  0  0  0  0
    2.6529   -1.7854    0.6423 H   0  0  0  0  0  0  0  0  0  0  0  0
    3.0787   -1.2484   -0.9791 H   0  0  0  0  0  0  0  0  0  0  0  0
    4.9892   -1.2485    0.6276 H   0  0  0  0  0  0  0  0  0  0  0  0
    4.1666   -0.0717    1.6378 H   0  0  0  0  0  0  0  0  0  0  0  0
    4.2730    1.6209   -0.1795 H   0  0  0  0  0  0  0  0  0  0  0  0
    4.9807    0.4065   -1.2801 H   0  0  0  0  0  0  0  0  0  0  0  0
    7.7219    2.1808   -0.1142 H   0  0  0  0  0  0  0  0  0  0  0  0
   -1.8289   -0.2287   -1.8521 H   0  0  0  0  0  0  0  0  0  0  0  0
   -2.6494    0.9459   -0.8385 H   0  0  0  0  0  0  0  0  0  0  0  0
   -2.5694   -0.7949    1.0753 H   0  0  0  0  0  0  0  0  0  0  0  0
   -1.9205   -1.9279   -0.1034 H   0  0  0  0  0  0  0  0  0  0  0  0
   -4.0690   -2.5249   -0.3611 H   0  0  0  0  0  0  0  0  0  0  0  0
   -4.1023   -1.2122   -1.5251 H   0  0  0  0  0  0  0  0  0  0  0  0
   -6.0598   -1.2311    0.0047 H   0  0  0  0  0  0  0  0  0  0  0  0
   -5.0257   -1.1168    1.4041 H   0  0  0  0  0  0  0  0  0  0  0  0
   -4.3167    1.1692    0.7589 H   0  0  0  0  0  0  0  0  0  0  0  0
   -5.2430    1.0432   -0.7629 H   0  0  0  0  0  0  0  0  0  0  0  0
   -6.3746    2.1099    0.8956 H   0  0  0  0  0  0  0  0  0  0  0  0
  1  2  1  0
  2  3  1  0
  3  4  1  0
  4  5  1  0
  5  6  1  0
  6  7  1  0
  7  8  2  0
  7  9  1  0
  1 10  1  0
 10 11  1  0
 11 12  1  0
 12 13  1  0
 13 14  1  0
 14 15  1  0
  1 16  1  0
  1 17  1  0
  2 18  1  0
  2 19  1  0
  3 20  1  0
  3 21  1  0
  4 22  1  0
  4 23  1  0
  5 24  1  0
  5 25  1  0
  6 26  1  0
  6 27  1  0
  9 28  1  0
 10 29  1  0
 10 30  1  0
 11 31  1  0
 11 32  1  0
 12 33  1  0
 12 34  1  0
 13 35  1  0
 13 36  1  0
 14 37  1  0
 14 38  1  0
 15 39  1  0
M  END
$$$$
