
     RDKit          3D

 11 11  0  0  0  0  0  0  0  0999 V2000
    1.1007    0.7491    0.0251 C   0  0  0  0  0  0  0  0  0  0  0  0
    1.3671   -0.5580   -0.0543 C   0  0  0  0  0  0  0  0  0  0  0  0
    0.4140   -1.5495   -0.0958 O   0  0  0  0  0  0  0  0  0  0  0  0
   -0.9065   -1.1657   -0.0522 C   0  0  0  0  0  0  0  0  0  0  0  0
   -1.3276    0.1001    0.0274 C   0  0  0  0  0  0  0  0  0  0  0  0
   -0.3128    1.1708    0.0724 C   0  0  0  0  0  0  0  0  0  0  0  0
   -0.6282    2.3511    0.1454 O   0  0  0  0  0  0  0  0  0  0  0  0
    1.8619    1.5154    0.0567 H   0  0  0  0  0  0  0  0  0  0  0  0
    2.3644   -0.9740   -0.0945 H   0  0  0  0  0  0  0  0  0  0  0  0
   -1.5634   -2.0237   -0.0908 H   0  0  0  0  0  0  0  0  0  0  0  0
   -2.3696    0.3845    0.0607 H   0  0  0  0  0  0  0  0  0  0  0  0
  1  2  2  0
  2  3  1  0
  3  4  1  0
  4  5  2  0
  5  6  1  0
  6  7  2  0
  6  1  1  0
  1  8  1  0
  2  9  1  0
  4 10  1  0
  5 11  1  0
M  END
$$$$
