
     RDKit          3D

 22 23  0  0  0  0  0  0  0  0999 V2000
   -2.0710    1.7504    0.5755 C   0  0  0  0  0  0  0  0  0  0  0  0
   -2.9576    0.7612    0.9934 C   0  0  0  0  0  0  0  0  0  0  0  0
   -2.6309   -0.5930    0.8783 C   0  0  0  0  0  0  0  0  0  0  0  0
   -1.3845   -0.9156    0.3280 C   0  0  0  0  0  0  0  0  0  0  0  0
   -0.4744    0.0508   -0.1009 C   0  0  0  0  0  0  0  0  0  0  0  0
   -0.8284    1.4100    0.0280 C   0  0  0  0  0  0  0  0  0  0  0  0
    0.6790   -0.6368   -0.6018 C   0  0  0  0  0  0  0  0  0  0  0  0
    0.4284   -1.9893   -0.4657 C   0  0  0  0  0  0  0  0  0  0  0  0
   -0.8074   -2.1429    0.1024 N   0  0  0  0  0  0  0  0  0  0  0  0
    1.9103   -0.0127   -1.1764 C   0  0  0  0  0  0  0  0  0  0  0  0
    2.8809    0.4637   -0.1217 C   0  0  0  0  0  0  0  0  0  0  0  0
    2.9161    0.1894    1.0658 O   0  0  0  0  0  0  0  0  0  0  0  0
    3.8320    1.2711   -0.6457 O   0  0  0  0  0  0  0  0  0  0  0  0
   -2.3434    2.7979    0.6768 H   0  0  0  0  0  0  0  0  0  0  0  0
   -3.9175    1.0451    1.4183 H   0  0  0  0  0  0  0  0  0  0  0  0
   -3.3223   -1.3613    1.2077 H   0  0  0  0  0  0  0  0  0  0  0  0
   -0.1457    2.1918   -0.2903 H   0  0  0  0  0  0  0  0  0  0  0  0
    1.0287   -2.8541   -0.7154 H   0  0  0  0  0  0  0  0  0  0  0  0
   -1.2401   -3.0279    0.3267 H   0  0  0  0  0  0  0  0  0  0  0  0
    1.6214    0.8441   -1.7964 H   0  0  0  0  0  0  0  0  0  0  0  0
    2.4342   -0.7329   -1.8151 H   0  0  0  0  0  0  0  0  0  0  0  0
    4.3923    1.4910    0.1286 H   0  0  0  0  0  0  0  0  0  0  0  0
  1  2  2  0
  2  3  1  0
  3  4  2  0
  4  5  1  0
  5  6  2  0
  5  7  1  0
  7  8  2  0
  8  9  1  0
  7 10  1  0
 10 11  1  0
 11 12  2  0
 11 13  1  0
  6  1  1  0
  9  4  1  0
  1 14  1  0
  2 15  1  0
  3 16  1  0
  6 17  1  0
  8 18  1  0
  9 19  1  0
 10 20  1  0
 10 21  1  0
 13 22  1  0
M  END
$$$$
