
     RDKit          3D

 87 86  0  0  0  0  0  0  0  0999 V2000
   14.2296    1.2750    0.4758 C   0  0  0  0  0  0  0  0  0  0  0  0
   13.0494    1.9026   -0.2573 C   0  0  0  0  0  0  0  0  0  0  0  0
   12.5619    3.0082    0.5008 O   0  0  0  0  0  0  0  0  0  0  0  0
   11.5018    3.7079   -0.1541 C   0  0  0  0  0  0  0  0  0  0  0  0
   10.1541    2.9972   -0.0223 C   0  0  0  0  0  0  0  0  0  0  0  0
    9.1493    3.7822   -0.6677 O   0  0  0  0  0  0  0  0  0  0  0  0
    7.8156    3.3367   -0.3864 C   0  0  0  0  0  0  0  0  0  0  0  0
    7.4698    2.0096   -1.0682 C   0  0  0  0  0  0  0  0  0  0  0  0
    7.9786    0.9257   -0.2865 O   0  0  0  0  0  0  0  0  0  0  0  0
    7.8255   -0.3544   -0.9084 C   0  0  0  0  0  0  0  0  0  0  0  0
    6.4049   -0.9102   -0.7842 C   0  0  0  0  0  0  0  0  0  0  0  0
    6.1233   -1.1815    0.5913 O   0  0  0  0  0  0  0  0  0  0  0  0
    4.8027   -1.6737    0.8139 C   0  0  0  0  0  0  0  0  0  0  0  0
    3.7762   -0.5410    0.8956 C   0  0  0  0  0  0  0  0  0  0  0  0
    2.4800   -0.9952    1.2898 O   0  0  0  0  0  0  0  0  0  0  0  0
    1.7826   -1.6831    0.2532 C   0  0  0  0  0  0  0  0  0  0  0  0
    0.3795   -2.0315    0.7403 C   0  0  0  0  0  0  0  0  0  0  0  0
   -0.2925   -2.7835   -0.2693 O   0  0  0  0  0  0  0  0  0  0  0  0
   -1.5948   -3.2149    0.1273 C   0  0  0  0  0  0  0  0  0  0  0  0
   -2.6469   -2.1153   -0.0315 C   0  0  0  0  0  0  0  0  0  0  0  0
   -3.9639   -2.5956    0.2392 O   0  0  0  0  0  0  0  0  0  0  0  0
   -4.2791   -2.6431    1.6329 C   0  0  0  0  0  0  0  0  0  0  0  0
   -5.7334   -3.0870    1.8131 C   0  0  0  0  0  0  0  0  0  0  0  0
   -6.6709   -2.1631    1.2525 O   0  0  0  0  0  0  0  0  0  0  0  0
   -6.9128   -1.0194    2.0755 C   0  0  0  0  0  0  0  0  0  0  0  0
   -7.8112   -0.0301    1.3286 C   0  0  0  0  0  0  0  0  0  0  0  0
   -9.2083   -0.3387    1.4049 O   0  0  0  0  0  0  0  0  0  0  0  0
   -9.6093   -1.5501    0.7581 C   0  0  0  0  0  0  0  0  0  0  0  0
   -9.3558   -1.5948   -0.7558 C   0  0  0  0  0  0  0  0  0  0  0  0
   -9.8158   -0.4490   -1.4781 O   0  0  0  0  0  0  0  0  0  0  0  0
  -11.2140   -0.2004   -1.3558 C   0  0  0  0  0  0  0  0  0  0  0  0
  -11.6492    0.8951   -2.3408 C   0  0  0  0  0  0  0  0  0  0  0  0
  -10.9294    2.1275   -2.2504 O   0  0  0  0  0  0  0  0  0  0  0  0
  -10.9699    2.7585   -0.9764 C   0  0  0  0  0  0  0  0  0  0  0  0
   -9.5651    2.8182   -0.3844 C   0  0  0  0  0  0  0  0  0  0  0  0
   -9.6013    3.2358    0.9787 O   0  0  0  0  0  0  0  0  0  0  0  0
   14.7250    0.1583   -0.2559 O   0  0  0  0  0  0  0  0  0  0  0  0
   15.0369    2.0072    0.5986 H   0  0  0  0  0  0  0  0  0  0  0  0
   13.9267    0.9415    1.4747 H   0  0  0  0  0  0  0  0  0  0  0  0
   12.2650    1.1504   -0.3940 H   0  0  0  0  0  0  0  0  0  0  0  0
   13.3690    2.2362   -1.2521 H   0  0  0  0  0  0  0  0  0  0  0  0
   11.7493    3.8948   -1.2066 H   0  0  0  0  0  0  0  0  0  0  0  0
   11.4266    4.6933    0.3187 H   0  0  0  0  0  0  0  0  0  0  0  0
   10.2079    2.0140   -0.4966 H   0  0  0  0  0  0  0  0  0  0  0  0
    9.9142    2.8558    1.0384 H   0  0  0  0  0  0  0  0  0  0  0  0
    7.6648    3.2883    0.6985 H   0  0  0  0  0  0  0  0  0  0  0  0
    7.1541    4.1135   -0.7842 H   0  0  0  0  0  0  0  0  0  0  0  0
    7.9058    1.9777   -2.0729 H   0  0  0  0  0  0  0  0  0  0  0  0
    6.3819    1.9176   -1.1324 H   0  0  0  0  0  0  0  0  0  0  0  0
    8.1302   -0.2979   -1.9589 H   0  0  0  0  0  0  0  0  0  0  0  0
    8.5206   -1.0285   -0.3961 H   0  0  0  0  0  0  0  0  0  0  0  0
    5.6736   -0.2007   -1.1810 H   0  0  0  0  0  0  0  0  0  0  0  0
    6.3346   -1.8463   -1.3485 H   0  0  0  0  0  0  0  0  0  0  0  0
    4.8114   -2.2114    1.7682 H   0  0  0  0  0  0  0  0  0  0  0  0
    4.5380   -2.4121    0.0484 H   0  0  0  0  0  0  0  0  0  0  0  0
    3.7081    0.0152   -0.0458 H   0  0  0  0  0  0  0  0  0  0  0  0
    4.1092    0.1822    1.6480 H   0  0  0  0  0  0  0  0  0  0  0  0
    1.7155   -1.0536   -0.6423 H   0  0  0  0  0  0  0  0  0  0  0  0
    2.3101   -2.6037   -0.0179 H   0  0  0  0  0  0  0  0  0  0  0  0
    0.4438   -2.6152    1.6666 H   0  0  0  0  0  0  0  0  0  0  0  0
   -0.1700   -1.1111    0.9655 H   0  0  0  0  0  0  0  0  0  0  0  0
   -1.8678   -4.0561   -0.5188 H   0  0  0  0  0  0  0  0  0  0  0  0
   -1.5739   -3.6129    1.1486 H   0  0  0  0  0  0  0  0  0  0  0  0
   -2.4227   -1.2406    0.5889 H   0  0  0  0  0  0  0  0  0  0  0  0
   -2.6339   -1.7629   -1.0695 H   0  0  0  0  0  0  0  0  0  0  0  0
   -4.1162   -1.6548    2.0714 H   0  0  0  0  0  0  0  0  0  0  0  0
   -3.6222   -3.3632    2.1299 H   0  0  0  0  0  0  0  0  0  0  0  0
   -5.9652   -3.2573    2.8703 H   0  0  0  0  0  0  0  0  0  0  0  0
   -5.8827   -4.0318    1.2803 H   0  0  0  0  0  0  0  0  0  0  0  0
   -7.3898   -1.3422    3.0071 H   0  0  0  0  0  0  0  0  0  0  0  0
   -5.9632   -0.5237    2.3005 H   0  0  0  0  0  0  0  0  0  0  0  0
   -7.7051    0.9517    1.8027 H   0  0  0  0  0  0  0  0  0  0  0  0
   -7.5048    0.0791    0.2834 H   0  0  0  0  0  0  0  0  0  0  0  0
  -10.6857   -1.6406    0.9402 H   0  0  0  0  0  0  0  0  0  0  0  0
   -9.1538   -2.4131    1.2532 H   0  0  0  0  0  0  0  0  0  0  0  0
   -8.2826   -1.6697   -0.9523 H   0  0  0  0  0  0  0  0  0  0  0  0
   -9.8149   -2.4923   -1.1842 H   0  0  0  0  0  0  0  0  0  0  0  0
  -11.7736   -1.1168   -1.5729 H   0  0  0  0  0  0  0  0  0  0  0  0
  -11.4366    0.1075   -0.3304 H   0  0  0  0  0  0  0  0  0  0  0  0
  -12.7190    1.1031   -2.2245 H   0  0  0  0  0  0  0  0  0  0  0  0
  -11.4962    0.5307   -3.3629 H   0  0  0  0  0  0  0  0  0  0  0  0
  -11.3388    3.7803   -1.1188 H   0  0  0  0  0  0  0  0  0  0  0  0
  -11.6782    2.2847   -0.2883 H   0  0  0  0  0  0  0  0  0  0  0  0
   -8.9470    3.5259   -0.9494 H   0  0  0  0  0  0  0  0  0  0  0  0
   -9.0627    1.8485   -0.4454 H   0  0  0  0  0  0  0  0  0  0  0  0
   -9.9483    2.4769    1.4877 H   0  0  0  0  0  0  0  0  0  0  0  0
   15.4716   -0.2004    0.2548 H   0  0  0  0  0  0  0  0  0  0  0  0
  1  2  1  0
  2  3  1  0
  3  4  1  0
  4  5  1  0
  5  6  1  0
  6  7  1  0
  7  8  1  0
  8  9  1  0
  9 10  1  0
 10 11  1  0
 11 12  1  0
 12 13  1  0
 13 14  1  0
 14 15  1  0
 15 16  1  0
 16 17  1  0
 17 18  1  0
 18 19  1  0
 19 20  1  0
 20 21  1  0
 21 22  1  0
 22 23  1  0
 23 24  1  0
 24 25  1  0
 25 26  1  0
 26 27  1  0
 27 28  1  0
 28 29  1  0
 29 30  1  0
 30 31  1  0
 31 32  1  0
 32 33  1  0
 33 34  1  0
 34 35  1  0
 35 36  1  0
  1 37  1  0
  1 38  1  0
  1 39  1  0
  2 40  1  0
  2 41  1  0
  4 42  1  0
  4 43  1  0
  5 44  1  0
  5 45  1  0
  7 46  1  0
  7 47  1  0
  8 48  1  0
  8 49  1  0
 10 50  1  0
 10 51  1  0
 11 52  1  0
 11 53  1  0
 13 54  1  0
 13 55  1  0
 14 56  1  0
 14 57  1  0
 16 58  1  0
 16 59  1  0
 17 60  1  0
 17 61  1  0
 19 62  1  0
 19 63  1  0
 20 64  1  0
 20 65  1  0
 22 66  1  0
 22 67  1  0
 23 68  1  0
 23 69  1  0
 25 70  1  0
 25 71  1  0
 26 72  1  0
 26 73  1  0
 28 74  1  0
 28 75  1  0
 29 76  1  0
 29 77  1  0
 31 78  1  0
 31 79  1  0
 32 80  1  0
 32 81  1  0
 34 82  1  0
 34 83  1  0
 35 84  1  0
 35 85  1  0
 36 86  1  0
 37 87  1  0
M  END
$$$$
