
     RDKit          3D

 25 28  0  0  0  0  0  0  0  0999 V2000
    3.6231    0.9396    0.5139 C   0  0  0  0  0  0  0  0  0  0  0  0
    3.7901   -0.4486    0.5368 C   0  0  0  0  0  0  0  0  0  0  0  0
    2.6913   -1.2974    0.3806 C   0  0  0  0  0  0  0  0  0  0  0  0
    1.4152   -0.7556    0.2001 C   0  0  0  0  0  0  0  0  0  0  0  0
    1.2504    0.6594    0.1775 C   0  0  0  0  0  0  0  0  0  0  0  0
    2.3553    1.4974    0.3346 C   0  0  0  0  0  0  0  0  0  0  0  0
   -0.0927    1.1770   -0.0125 C   0  0  0  0  0  0  0  0  0  0  0  0
   -0.5321    2.4389   -0.0740 N   0  0  0  0  0  0  0  0  0  0  0  0
   -1.8742    2.2963   -0.2643 N   0  0  0  0  0  0  0  0  0  0  0  0
   -2.2989    0.9922   -0.3252 C   0  0  0  0  0  0  0  0  0  0  0  0
   -3.5281    0.3530   -0.4997 C   0  0  0  0  0  0  0  0  0  0  0  0
   -3.5064   -1.0608   -0.4974 C   0  0  0  0  0  0  0  0  0  0  0  0
   -2.3180   -1.7952   -0.3295 C   0  0  0  0  0  0  0  0  0  0  0  0
   -1.1143   -1.1170   -0.1585 C   0  0  0  0  0  0  0  0  0  0  0  0
   -1.1418    0.2687   -0.1617 C   0  0  0  0  0  0  0  0  0  0  0  0
    0.2363   -1.7033    0.0325 C   0  0  0  0  0  0  0  0  0  0  0  0
    0.3787   -2.9194    0.0520 O   0  0  0  0  0  0  0  0  0  0  0  0
    4.4863    1.5902    0.6366 H   0  0  0  0  0  0  0  0  0  0  0  0
    4.7826   -0.8716    0.6772 H   0  0  0  0  0  0  0  0  0  0  0  0
    2.8330   -2.3760    0.4001 H   0  0  0  0  0  0  0  0  0  0  0  0
    2.2336    2.5782    0.3179 H   0  0  0  0  0  0  0  0  0  0  0  0
   -2.4375    3.1355   -0.3436 H   0  0  0  0  0  0  0  0  0  0  0  0
   -4.4545    0.9021   -0.6307 H   0  0  0  0  0  0  0  0  0  0  0  0
   -4.4432   -1.6013   -0.6305 H   0  0  0  0  0  0  0  0  0  0  0  0
   -2.3341   -2.8823   -0.3323 H   0  0  0  0  0  0  0  0  0  0  0  0
  1  2  2  0
  2  3  1  0
  3  4  2  0
  4  5  1  0
  5  6  2  0
  5  7  1  0
  7  8  2  0
  8  9  1  0
  9 10  1  0
 10 11  2  0
 11 12  1  0
 12 13  2  0
 13 14  1  0
 14 15  2  0
 14 16  1  0
 16 17  2  0
  6  1  1  0
 16  4  1  0
 15  7  1  0
 15 10  1  0
  1 18  1  0
  2 19  1  0
  3 20  1  0
  6 21  1  0
  9 22  1  0
 11 23  1  0
 12 24  1  0
 13 25  1  0
M  END
$$$$
