
     RDKit          3D

 86 87  0  0  0  0  0  0  0  0999 V2000
   -4.9969   -2.7657    0.5761 C   0  0  0  0  0  0  0  0  0  0  0  0
   -5.3725   -1.3155    0.3982 C   0  0  0  0  0  0  0  0  0  0  0  0
   -6.5469   -0.8091    1.0022 C   0  0  0  0  0  0  0  0  0  0  0  0
   -6.8867    0.5366    0.7749 C   0  0  0  0  0  0  0  0  0  0  0  0
   -6.0540    1.4241    0.0682 C   0  0  0  0  0  0  0  0  0  0  0  0
   -4.8548    0.9219   -0.4878 C   0  0  0  0  0  0  0  0  0  0  0  0
   -4.5549   -0.4498   -0.3636 C   0  0  0  0  0  0  0  0  0  0  0  0
   -3.4628   -1.0294   -0.9628 O   0  0  0  0  0  0  0  0  0  0  0  0
   -2.7788   -0.2805   -1.9787 C   0  0  2  0  0  0  0  0  0  0  0  0
   -2.5879    1.1698   -1.5258 C   0  0  0  0  0  0  0  0  0  0  0  0
   -3.9282    1.8320   -1.2510 C   0  0  0  0  0  0  0  0  0  0  0  0
   -3.5804   -0.3574   -3.3009 C   0  0  0  0  0  0  0  0  0  0  0  0
   -1.4168   -0.9905   -2.2390 C   0  0  0  0  0  0  0  0  0  0  0  0
   -0.5916   -1.4730   -1.0306 C   0  0  0  0  0  0  0  0  0  0  0  0
    0.1898   -0.3713   -0.3128 C   0  0  0  0  0  0  0  0  0  0  0  0
    1.2963   -0.8843    0.6327 C   0  0  2  0  0  0  0  0  0  0  0  0
    0.7633   -1.9080    1.6465 C   0  0  0  0  0  0  0  0  0  0  0  0
    1.9514    0.2844    1.4032 C   0  0  0  0  0  0  0  0  0  0  0  0
    2.6305    1.3576    0.5397 C   0  0  0  0  0  0  0  0  0  0  0  0
    3.7887    0.8696   -0.3411 C   0  0  0  0  0  0  0  0  0  0  0  0
    4.9386    0.1288    0.3852 C   0  0  2  0  0  0  0  0  0  0  0  0
    5.5955    1.0186    1.4448 C   0  0  0  0  0  0  0  0  0  0  0  0
    5.9470   -0.3724   -0.6767 C   0  0  0  0  0  0  0  0  0  0  0  0
    7.0432   -1.3279   -0.1811 C   0  0  0  0  0  0  0  0  0  0  0  0
    8.2721   -0.7133    0.5110 C   0  0  0  0  0  0  0  0  0  0  0  0
    8.9930    0.4066   -0.2554 C   0  0  0  0  0  0  0  0  0  0  0  0
    9.5700   -0.0824   -1.5839 C   0  0  0  0  0  0  0  0  0  0  0  0
   10.1093    0.9909    0.6155 C   0  0  0  0  0  0  0  0  0  0  0  0
   -6.4101    2.8791   -0.0845 C   0  0  0  0  0  0  0  0  0  0  0  0
   -8.0780    1.0364    1.3246 O   0  0  0  0  0  0  0  0  0  0  0  0
   -9.1823    0.8473    0.4989 C   0  0  0  0  0  0  0  0  0  0  0  0
   -9.1983    0.3132   -0.6032 O   0  0  0  0  0  0  0  0  0  0  0  0
  -10.3869    1.4543    1.1570 C   0  0  0  0  0  0  0  0  0  0  0  0
   -7.4429   -1.7078    1.8150 C   0  0  0  0  0  0  0  0  0  0  0  0
   -4.7358   -2.9556    1.6206 H   0  0  0  0  0  0  0  0  0  0  0  0
   -5.8282   -3.4136    0.2841 H   0  0  0  0  0  0  0  0  0  0  0  0
   -4.1376   -3.0674   -0.0296 H   0  0  0  0  0  0  0  0  0  0  0  0
   -2.0237    1.7498   -2.2630 H   0  0  0  0  0  0  0  0  0  0  0  0
   -2.0228    1.2051   -0.5919 H   0  0  0  0  0  0  0  0  0  0  0  0
   -3.7435    2.7520   -0.6824 H   0  0  0  0  0  0  0  0  0  0  0  0
   -4.4067    2.1164   -2.1940 H   0  0  0  0  0  0  0  0  0  0  0  0
   -3.1192    0.2663   -4.0783 H   0  0  0  0  0  0  0  0  0  0  0  0
   -3.6269   -1.3896   -3.6765 H   0  0  0  0  0  0  0  0  0  0  0  0
   -4.6263   -0.0491   -3.1830 H   0  0  0  0  0  0  0  0  0  0  0  0
   -1.6249   -1.9074   -2.8060 H   0  0  0  0  0  0  0  0  0  0  0  0
   -0.7917   -0.3708   -2.8952 H   0  0  0  0  0  0  0  0  0  0  0  0
    0.1305   -2.2107   -1.4118 H   0  0  0  0  0  0  0  0  0  0  0  0
   -1.2354   -2.0124   -0.3234 H   0  0  0  0  0  0  0  0  0  0  0  0
   -0.5024    0.2341    0.2757 H   0  0  0  0  0  0  0  0  0  0  0  0
    0.6364    0.2822   -1.0710 H   0  0  0  0  0  0  0  0  0  0  0  0
    2.0655   -1.3915    0.0346 H   0  0  0  0  0  0  0  0  0  0  0  0
    0.4457   -2.8321    1.1490 H   0  0  0  0  0  0  0  0  0  0  0  0
   -0.0904   -1.5089    2.2055 H   0  0  0  0  0  0  0  0  0  0  0  0
    1.5403   -2.1837    2.3719 H   0  0  0  0  0  0  0  0  0  0  0  0
    2.6864   -0.1154    2.1119 H   0  0  0  0  0  0  0  0  0  0  0  0
    1.1858    0.7769    2.0158 H   0  0  0  0  0  0  0  0  0  0  0  0
    1.8853    1.8416   -0.1000 H   0  0  0  0  0  0  0  0  0  0  0  0
    2.9915    2.1549    1.2026 H   0  0  0  0  0  0  0  0  0  0  0  0
    4.1985    1.7385   -0.8731 H   0  0  0  0  0  0  0  0  0  0  0  0
    3.3751    0.2116   -1.1187 H   0  0  0  0  0  0  0  0  0  0  0  0
    4.5204   -0.7502    0.8884 H   0  0  0  0  0  0  0  0  0  0  0  0
    6.1977    0.4183    2.1320 H   0  0  0  0  0  0  0  0  0  0  0  0
    4.8592    1.5310    2.0722 H   0  0  0  0  0  0  0  0  0  0  0  0
    6.2357    1.7796    0.9858 H   0  0  0  0  0  0  0  0  0  0  0  0
    5.3784   -0.9301   -1.4326 H   0  0  0  0  0  0  0  0  0  0  0  0
    6.3864    0.4739   -1.2148 H   0  0  0  0  0  0  0  0  0  0  0  0
    6.5975   -2.0744    0.4897 H   0  0  0  0  0  0  0  0  0  0  0  0
    7.4029   -1.8944   -1.0504 H   0  0  0  0  0  0  0  0  0  0  0  0
    7.9868   -0.3510    1.5018 H   0  0  0  0  0  0  0  0  0  0  0  0
    8.9816   -1.5284    0.7036 H   0  0  0  0  0  0  0  0  0  0  0  0
    8.2936    1.2252   -0.4602 H   0  0  0  0  0  0  0  0  0  0  0  0
   10.2046   -0.9657   -1.4401 H   0  0  0  0  0  0  0  0  0  0  0  0
   10.1803    0.6952   -2.0606 H   0  0  0  0  0  0  0  0  0  0  0  0
    8.7725   -0.3498   -2.2867 H   0  0  0  0  0  0  0  0  0  0  0  0
   10.6255    1.8086    0.0973 H   0  0  0  0  0  0  0  0  0  0  0  0
    9.7008    1.3961    1.5499 H   0  0  0  0  0  0  0  0  0  0  0  0
   10.8566    0.2309    0.8732 H   0  0  0  0  0  0  0  0  0  0  0  0
   -7.4183    3.1128    0.2712 H   0  0  0  0  0  0  0  0  0  0  0  0
   -5.7104    3.4918    0.4931 H   0  0  0  0  0  0  0  0  0  0  0  0
   -6.3758    3.1734   -1.1390 H   0  0  0  0  0  0  0  0  0  0  0  0
  -11.2852    0.9526    0.7838 H   0  0  0  0  0  0  0  0  0  0  0  0
  -10.3424    1.3059    2.2413 H   0  0  0  0  0  0  0  0  0  0  0  0
  -10.4284    2.5207    0.9184 H   0  0  0  0  0  0  0  0  0  0  0  0
   -8.1547   -1.1451    2.4271 H   0  0  0  0  0  0  0  0  0  0  0  0
   -6.8579   -2.3090    2.5171 H   0  0  0  0  0  0  0  0  0  0  0  0
   -8.0103   -2.3719    1.1551 H   0  0  0  0  0  0  0  0  0  0  0  0
  1  2  1  0
  2  3  2  0
  3  4  1  0
  4  5  2  0
  5  6  1  0
  6  7  2  0
  7  8  1  0
  8  9  1  0
  9 10  1  0
 10 11  1  0
  9 12  1  6
  9 13  1  0
 13 14  1  0
 14 15  1  0
 15 16  1  0
 16 17  1  0
 16 18  1  0
 18 19  1  0
 19 20  1  0
 20 21  1  0
 21 22  1  0
 21 23  1  0
 23 24  1  0
 24 25  1  0
 25 26  1  0
 26 27  1  0
 26 28  1  0
  5 29  1  0
  4 30  1  0
 30 31  1  0
 31 32  2  0
 31 33  1  0
  3 34  1  0
  7  2  1  0
 11  6  1  0
  1 35  1  0
  1 36  1  0
  1 37  1  0
 10 38  1  0
 10 39  1  0
 11 40  1  0
 11 41  1  0
 12 42  1  0
 12 43  1  0
 12 44  1  0
 13 45  1  0
 13 46  1  0
 14 47  1  0
 14 48  1  0
 15 49  1  0
 15 50  1  0
 16 51  1  6
 17 52  1  0
 17 53  1  0
 17 54  1  0
 18 55  1  0
 18 56  1  0
 19 57  1  0
 19 58  1  0
 20 59  1  0
 20 60  1  0
 21 61  1  1
 22 62  1  0
 22 63  1  0
 22 64  1  0
 23 65  1  0
 23 66  1  0
 24 67  1  0
 24 68  1  0
 25 69  1  0
 25 70  1  0
 26 71  1  0
 27 72  1  0
 27 73  1  0
 27 74  1  0
 28 75  1  0
 28 76  1  0
 28 77  1  0
 29 78  1  0
 29 79  1  0
 29 80  1  0
 33 81  1  0
 33 82  1  0
 33 83  1  0
 34 84  1  0
 34 85  1  0
 34 86  1  0
M  END
$$$$
