
     RDKit          3D

 36 37  0  0  0  0  0  0  0  0999 V2000
   -0.2778   -1.9042    2.8178 C   0  0  0  0  0  0  0  0  0  0  0  0
    0.3803   -1.1893    1.6880 C   0  0  0  0  0  0  0  0  0  0  0  0
    1.7282   -1.0168    1.4623 C   0  0  0  0  0  0  0  0  0  0  0  0
    1.9043   -0.2662    0.2687 C   0  0  0  0  0  0  0  0  0  0  0  0
    0.6197    0.0089   -0.2205 C   0  0  0  0  0  0  0  0  0  0  0  0
   -0.2961   -0.5672    0.6555 N   0  0  0  0  0  0  0  0  0  0  0  0
   -1.7659   -0.5240    0.5290 C   0  0  0  0  0  0  0  0  0  0  0  0
   -2.2444   -1.2437   -0.7356 C   0  0  0  0  0  0  0  0  0  0  0  0
   -2.2925    0.9114    0.7111 C   0  0  0  0  0  0  0  0  0  0  0  0
   -4.1100    1.0091    0.9059 S   0  0  0  0  0  0  0  0  0  0  0  0
   -4.5684    1.5006   -0.7752 C   0  0  0  0  0  0  0  0  0  0  0  0
    0.4321    0.7468   -1.3992 C   0  0  0  0  0  0  0  0  0  0  0  0
    1.5557    1.2054   -2.0853 C   0  0  0  0  0  0  0  0  0  0  0  0
    2.8446    0.9419   -1.6182 C   0  0  0  0  0  0  0  0  0  0  0  0
    3.0520    0.2002   -0.4303 C   0  0  0  0  0  0  0  0  0  0  0  0
    4.4657   -0.0590    0.0365 C   0  0  0  0  0  0  0  0  0  0  0  0
    4.5597   -0.7810    1.1869 F   0  0  0  0  0  0  0  0  0  0  0  0
    5.1494    1.0937    0.2770 F   0  0  0  0  0  0  0  0  0  0  0  0
    5.1950   -0.7490   -0.8833 F   0  0  0  0  0  0  0  0  0  0  0  0
    3.9498    1.4506   -2.3857 C   0  0  0  0  0  0  0  0  0  0  0  0
    4.8303    1.8675   -3.0150 N   0  0  0  0  0  0  0  0  0  0  0  0
   -0.9323   -1.2280    3.3768 H   0  0  0  0  0  0  0  0  0  0  0  0
   -0.8665   -2.7508    2.4508 H   0  0  0  0  0  0  0  0  0  0  0  0
    0.4679   -2.2969    3.5171 H   0  0  0  0  0  0  0  0  0  0  0  0
    2.5085   -1.4004    2.1091 H   0  0  0  0  0  0  0  0  0  0  0  0
   -2.1532   -1.1135    1.3677 H   0  0  0  0  0  0  0  0  0  0  0  0
   -2.0731   -0.6551   -1.6403 H   0  0  0  0  0  0  0  0  0  0  0  0
   -1.7283   -2.2026   -0.8587 H   0  0  0  0  0  0  0  0  0  0  0  0
   -3.3166   -1.4585   -0.6819 H   0  0  0  0  0  0  0  0  0  0  0  0
   -1.9846    1.5712   -0.1045 H   0  0  0  0  0  0  0  0  0  0  0  0
   -1.8642    1.3360    1.6271 H   0  0  0  0  0  0  0  0  0  0  0  0
   -4.1153    2.4633   -1.0260 H   0  0  0  0  0  0  0  0  0  0  0  0
   -5.6551    1.6055   -0.8325 H   0  0  0  0  0  0  0  0  0  0  0  0
   -4.2564    0.7468   -1.5011 H   0  0  0  0  0  0  0  0  0  0  0  0
   -0.5540    0.9694   -1.7916 H   0  0  0  0  0  0  0  0  0  0  0  0
    1.4114    1.7779   -3.0019 H   0  0  0  0  0  0  0  0  0  0  0  0
  1  2  1  0
  2  3  2  0
  3  4  1  0
  4  5  2  0
  5  6  1  0
  6  7  1  0
  7  8  1  0
  7  9  1  0
  9 10  1  0
 10 11  1  0
  5 12  1  0
 12 13  2  0
 13 14  1  0
 14 15  2  0
 15 16  1  0
 16 17  1  0
 16 18  1  0
 16 19  1  0
 14 20  1  0
 20 21  3  0
  6  2  1  0
 15  4  1  0
  1 22  1  0
  1 23  1  0
  1 24  1  0
  3 25  1  0
  7 26  1  0
  8 27  1  0
  8 28  1  0
  8 29  1  0
  9 30  1  0
  9 31  1  0
 11 32  1  0
 11 33  1  0
 11 34  1  0
 12 35  1  0
 13 36  1  0
M  END
$$$$
