
     RDKit          3D

 38 39  0  0  0  0  0  0  0  0999 V2000
    0.2399   -0.8879    2.7316 C   0  0  0  0  0  0  0  0  0  0  0  0
   -0.4777   -0.7391    1.4361 C   0  0  0  0  0  0  0  0  0  0  0  0
   -1.8171   -0.9730    1.2000 C   0  0  0  0  0  0  0  0  0  0  0  0
   -2.1080   -0.6958   -0.1620 C   0  0  0  0  0  0  0  0  0  0  0  0
   -0.9021   -0.2931   -0.7455 C   0  0  0  0  0  0  0  0  0  0  0  0
    0.0874   -0.3544    0.2362 N   0  0  0  0  0  0  0  0  0  0  0  0
    1.4971    0.0046   -0.0144 C   0  0  0  0  0  0  0  0  0  0  0  0
    2.4834   -1.0446    0.5058 C   0  0  0  0  0  0  0  0  0  0  0  0
    1.7657    1.4253    0.4779 C   0  0  0  0  0  0  0  0  0  0  0  0
    3.2535    2.1497   -0.1854 S   0  0  0  0  0  6  0  0  0  0  0  0
    3.6158    1.4487   -1.4012 O   0  0  0  0  0  0  0  0  0  0  0  0
    3.0632    3.5876   -0.1960 O   0  0  0  0  0  0  0  0  0  0  0  0
    4.4956    1.8052    1.0396 C   0  0  0  0  0  0  0  0  0  0  0  0
   -0.8306    0.0867   -2.0954 C   0  0  0  0  0  0  0  0  0  0  0  0
   -1.9959    0.0417   -2.8593 C   0  0  0  0  0  0  0  0  0  0  0  0
   -3.2094   -0.3681   -2.3027 C   0  0  0  0  0  0  0  0  0  0  0  0
   -3.2970   -0.7463   -0.9405 C   0  0  0  0  0  0  0  0  0  0  0  0
   -4.6330   -1.1759   -0.3808 C   0  0  0  0  0  0  0  0  0  0  0  0
   -4.6083   -1.5232    0.9358 F   0  0  0  0  0  0  0  0  0  0  0  0
   -5.5736   -0.1964   -0.4778 F   0  0  0  0  0  0  0  0  0  0  0  0
   -5.1420   -2.2592   -1.0296 F   0  0  0  0  0  0  0  0  0  0  0  0
   -4.3647   -0.3889   -3.1596 C   0  0  0  0  0  0  0  0  0  0  0  0
   -5.2903   -0.4024   -3.8583 N   0  0  0  0  0  0  0  0  0  0  0  0
    0.8306   -1.8087    2.7410 H   0  0  0  0  0  0  0  0  0  0  0  0
    0.8931   -0.0369    2.9360 H   0  0  0  0  0  0  0  0  0  0  0  0
   -0.4738   -0.9497    3.5607 H   0  0  0  0  0  0  0  0  0  0  0  0
   -2.5196   -1.3039    1.9563 H   0  0  0  0  0  0  0  0  0  0  0  0
    1.6082   -0.0210   -1.1027 H   0  0  0  0  0  0  0  0  0  0  0  0
    2.6826   -0.9307    1.5749 H   0  0  0  0  0  0  0  0  0  0  0  0
    3.4449   -0.9593   -0.0105 H   0  0  0  0  0  0  0  0  0  0  0  0
    2.1131   -2.0607    0.3306 H   0  0  0  0  0  0  0  0  0  0  0  0
    1.8185    1.4978    1.5676 H   0  0  0  0  0  0  0  0  0  0  0  0
    0.9542    2.0906    0.1565 H   0  0  0  0  0  0  0  0  0  0  0  0
    5.4267    2.2759    0.7162 H   0  0  0  0  0  0  0  0  0  0  0  0
    4.6387    0.7287    1.1246 H   0  0  0  0  0  0  0  0  0  0  0  0
    4.1779    2.2308    1.9932 H   0  0  0  0  0  0  0  0  0  0  0  0
    0.0971    0.4119   -2.5582 H   0  0  0  0  0  0  0  0  0  0  0  0
   -1.9439    0.3340   -3.9086 H   0  0  0  0  0  0  0  0  0  0  0  0
  1  2  1  0
  2  3  2  0
  3  4  1  0
  4  5  2  0
  5  6  1  0
  6  7  1  0
  7  8  1  0
  7  9  1  0
  9 10  1  0
 10 11  2  0
 10 12  2  0
 10 13  1  0
  5 14  1  0
 14 15  2  0
 15 16  1  0
 16 17  2  0
 17 18  1  0
 18 19  1  0
 18 20  1  0
 18 21  1  0
 16 22  1  0
 22 23  3  0
  6  2  1  0
 17  4  1  0
  1 24  1  0
  1 25  1  0
  1 26  1  0
  3 27  1  0
  7 28  1  0
  8 29  1  0
  8 30  1  0
  8 31  1  0
  9 32  1  0
  9 33  1  0
 13 34  1  0
 13 35  1  0
 13 36  1  0
 14 37  1  0
 15 38  1  0
M  END
$$$$
