
     RDKit          3D

 34 35  0  0  0  0  0  0  0  0999 V2000
   -0.6495    3.1449    0.5662 C   0  0  0  0  0  0  0  0  0  0  0  0
   -0.0844    1.7676    0.5212 C   0  0  0  0  0  0  0  0  0  0  0  0
    0.8497    1.1990    1.3602 C   0  0  0  0  0  0  0  0  0  0  0  0
    1.1097   -0.1314    0.9295 C   0  0  0  0  0  0  0  0  0  0  0  0
    0.3016   -0.3480   -0.1931 C   0  0  0  0  0  0  0  0  0  0  0  0
   -0.4280    0.8143   -0.4162 N   0  0  0  0  0  0  0  0  0  0  0  0
   -1.4148    1.0089   -1.4857 C   0  0  0  0  0  0  0  0  0  0  0  0
   -0.7460    1.1450   -2.8527 C   0  0  0  0  0  0  0  0  0  0  0  0
   -2.5067   -0.0554   -1.4581 C   0  0  0  0  0  0  0  0  0  0  0  0
   -2.7416   -0.7867   -2.4223 O   0  0  0  0  0  0  0  0  0  0  0  0
   -3.3249   -0.1665   -0.1942 C   0  0  0  0  0  0  0  0  0  0  0  0
    0.3132   -1.5692   -0.8838 C   0  0  0  0  0  0  0  0  0  0  0  0
    1.1536   -2.5817   -0.4240 C   0  0  0  0  0  0  0  0  0  0  0  0
    1.9679   -2.3928    0.6949 C   0  0  0  0  0  0  0  0  0  0  0  0
    1.9675   -1.1638    1.3997 C   0  0  0  0  0  0  0  0  0  0  0  0
    2.8673   -1.0057    2.6032 C   0  0  0  0  0  0  0  0  0  0  0  0
    2.7899    0.2111    3.2098 F   0  0  0  0  0  0  0  0  0  0  0  0
    4.1822   -1.1712    2.2922 F   0  0  0  0  0  0  0  0  0  0  0  0
    2.5889   -1.9131    3.5794 F   0  0  0  0  0  0  0  0  0  0  0  0
    2.8058   -3.4881    1.1042 C   0  0  0  0  0  0  0  0  0  0  0  0
    3.4772   -4.3769    1.4272 N   0  0  0  0  0  0  0  0  0  0  0  0
   -1.7232    3.1149    0.7770 H   0  0  0  0  0  0  0  0  0  0  0  0
   -0.1713    3.7370    1.3536 H   0  0  0  0  0  0  0  0  0  0  0  0
   -0.4871    3.6633   -0.3841 H   0  0  0  0  0  0  0  0  0  0  0  0
    1.3060    1.7085    2.2012 H   0  0  0  0  0  0  0  0  0  0  0  0
   -1.9338    1.9540   -1.2906 H   0  0  0  0  0  0  0  0  0  0  0  0
   -0.0007    1.9479   -2.8452 H   0  0  0  0  0  0  0  0  0  0  0  0
   -0.2397    0.2242   -3.1591 H   0  0  0  0  0  0  0  0  0  0  0  0
   -1.4884    1.3796   -3.6234 H   0  0  0  0  0  0  0  0  0  0  0  0
   -2.7145   -0.5729    0.6150 H   0  0  0  0  0  0  0  0  0  0  0  0
   -3.7122    0.8175    0.0816 H   0  0  0  0  0  0  0  0  0  0  0  0
   -4.1728   -0.8358   -0.3660 H   0  0  0  0  0  0  0  0  0  0  0  0
   -0.3061   -1.7460   -1.7595 H   0  0  0  0  0  0  0  0  0  0  0  0
    1.1652   -3.5323   -0.9582 H   0  0  0  0  0  0  0  0  0  0  0  0
  1  2  1  0
  2  3  2  0
  3  4  1  0
  4  5  2  0
  5  6  1  0
  6  7  1  0
  7  8  1  0
  7  9  1  0
  9 10  2  0
  9 11  1  0
  5 12  1  0
 12 13  2  0
 13 14  1  0
 14 15  2  0
 15 16  1  0
 16 17  1  0
 16 18  1  0
 16 19  1  0
 14 20  1  0
 20 21  3  0
  6  2  1  0
 15  4  1  0
  1 22  1  0
  1 23  1  0
  1 24  1  0
  3 25  1  0
  7 26  1  0
  8 27  1  0
  8 28  1  0
  8 29  1  0
 11 30  1  0
 11 31  1  0
 11 32  1  0
 12 33  1  0
 13 34  1  0
M  END
$$$$
