
     RDKit          3D

 33 34  0  0  0  0  0  0  0  0999 V2000
   -4.5969    2.1451   -0.7218 C   0  0  0  0  0  0  0  0  0  0  0  0
   -3.2110    1.8212   -0.7140 O   0  0  0  0  0  0  0  0  0  0  0  0
   -2.8656    0.5946   -0.2088 C   0  0  0  0  0  0  0  0  0  0  0  0
   -1.4858    0.3336   -0.2187 C   0  0  0  0  0  0  0  0  0  0  0  0
   -0.9741   -0.8932    0.2611 C   0  0  0  0  0  0  0  0  0  0  0  0
   -1.9004   -1.8172    0.7539 C   0  0  0  0  0  0  0  0  0  0  0  0
   -1.1956   -2.9180    1.1708 N   0  0  0  0  0  0  0  0  0  0  0  0
    0.1386   -2.7310    0.9617 C   0  0  0  0  0  0  0  0  0  0  0  0
    0.3340   -1.4809    0.3987 C   0  0  0  0  0  0  0  0  0  0  0  0
    1.7008   -0.9635    0.0471 C   0  0  0  0  0  0  0  0  0  0  0  0
    1.8040    0.4688   -0.4661 C   0  0  0  0  0  0  0  0  0  0  0  0
    3.1684    0.8367   -0.8078 N   0  0  0  0  0  0  0  0  0  0  0  0
    4.0894    1.1717    0.1556 C   0  0  0  0  0  0  0  0  0  0  0  0
    5.4558    1.4899   -0.3798 C   0  0  0  0  0  0  0  0  0  0  0  0
    3.8370    1.2229    1.3556 O   0  0  0  0  0  0  0  0  0  0  0  0
   -3.2808   -1.5826    0.7796 C   0  0  0  0  0  0  0  0  0  0  0  0
   -3.7486   -0.3597    0.2874 C   0  0  0  0  0  0  0  0  0  0  0  0
   -5.0024    2.1654    0.2967 H   0  0  0  0  0  0  0  0  0  0  0  0
   -5.1586    1.4515   -1.3586 H   0  0  0  0  0  0  0  0  0  0  0  0
   -4.6983    3.1509   -1.1451 H   0  0  0  0  0  0  0  0  0  0  0  0
   -0.8255    1.1033   -0.6023 H   0  0  0  0  0  0  0  0  0  0  0  0
   -1.6123   -3.7416    1.5798 H   0  0  0  0  0  0  0  0  0  0  0  0
    0.8486   -3.4986    1.2382 H   0  0  0  0  0  0  0  0  0  0  0  0
    2.1266   -1.6337   -0.7116 H   0  0  0  0  0  0  0  0  0  0  0  0
    2.3386   -1.0721    0.9340 H   0  0  0  0  0  0  0  0  0  0  0  0
    1.4319    1.1782    0.2807 H   0  0  0  0  0  0  0  0  0  0  0  0
    1.2196    0.5926   -1.3820 H   0  0  0  0  0  0  0  0  0  0  0  0
    3.4593    0.7641   -1.7759 H   0  0  0  0  0  0  0  0  0  0  0  0
    5.5749    1.1585   -1.4135 H   0  0  0  0  0  0  0  0  0  0  0  0
    5.6161    2.5677   -0.3329 H   0  0  0  0  0  0  0  0  0  0  0  0
    6.2087    0.9833    0.2292 H   0  0  0  0  0  0  0  0  0  0  0  0
   -3.9760   -2.3196    1.1713 H   0  0  0  0  0  0  0  0  0  0  0  0
   -4.8202   -0.1882    0.3083 H   0  0  0  0  0  0  0  0  0  0  0  0
  1  2  1  0
  2  3  1  0
  3  4  2  0
  4  5  1  0
  5  6  2  0
  6  7  1  0
  7  8  1  0
  8  9  2  0
  9 10  1  0
 10 11  1  0
 11 12  1  0
 12 13  1  0
 13 14  1  0
 13 15  2  0
  6 16  1  0
 16 17  2  0
 17  3  1  0
  9  5  1  0
  1 18  1  0
  1 19  1  0
  1 20  1  0
  4 21  1  0
  7 22  1  0
  8 23  1  0
 10 24  1  0
 10 25  1  0
 11 26  1  0
 11 27  1  0
 12 28  1  0
 14 29  1  0
 14 30  1  0
 14 31  1  0
 16 32  1  0
 17 33  1  0
M  END
$$$$
