
     RDKit          3D

 34 34  0  0  0  0  0  0  0  0999 V2000
    2.6066   -1.5093   -2.0275 C   0  0  0  0  0  0  0  0  0  0  0  0
    3.4161   -0.8329   -1.1318 C   0  0  0  0  0  0  0  0  0  0  0  0
    2.8364   -0.0214   -0.1504 C   0  0  0  0  0  0  0  0  0  0  0  0
    1.4489    0.0955   -0.1150 C   0  0  0  0  0  0  0  0  0  0  0  0
    0.6488   -0.5869   -0.9752 N   0  0  0  0  0  4  0  0  0  0  0  0
    1.2097   -1.3845   -1.9178 C   0  0  0  0  0  0  0  0  0  0  0  0
   -0.8483   -0.4683   -0.8879 C   0  0  1  0  0  0  0  0  0  0  0  0
   -1.3782   -1.1786    0.3737 C   0  0  1  0  0  0  0  0  0  0  0  0
   -2.7006   -0.4571    0.5543 C   0  0  1  0  0  0  0  0  0  0  0  0
   -2.5308    0.8934   -0.1905 C   0  0  2  0  0  0  0  0  0  0  0  0
   -1.2102    0.9074   -0.7752 O   0  0  0  0  0  0  0  0  0  0  0  0
   -2.6934    2.1204    0.7103 C   0  0  0  0  0  0  0  0  0  0  0  0
   -1.6875    2.1203    1.7529 O   0  0  0  0  0  0  0  0  0  0  0  0
   -3.7696   -1.2214   -0.0093 O   0  0  0  0  0  0  0  0  0  0  0  0
   -1.5125   -2.5744    0.1584 O   0  0  0  0  0  0  0  0  0  0  0  0
    3.7172    0.5978    0.8574 C   0  0  0  0  0  0  0  0  0  0  0  0
    4.9255    0.3520    0.8842 O   0  0  0  0  0  0  0  0  0  0  0  0
    3.1737    1.4751    1.7723 N   0  0  0  0  0  0  0  0  0  0  0  0
    0.0000    0.0000    0.0000 Cl  0  0  0  0  0 15  0  0  0  0  0  0
    3.0510   -2.1618   -2.7749 H   0  0  0  0  0  0  0  0  0  0  0  0
    4.4974   -0.9447   -1.1737 H   0  0  0  0  0  0  0  0  0  0  0  0
    0.9491    0.7184    0.6374 H   0  0  0  0  0  0  0  0  0  0  0  0
    0.5323   -1.9179   -2.5849 H   0  0  0  0  0  0  0  0  0  0  0  0
   -1.2648   -0.8957   -1.8109 H   0  0  0  0  0  0  0  0  0  0  0  0
   -0.7336   -1.0125    1.2340 H   0  0  0  0  0  0  0  0  0  0  0  0
   -2.9337   -0.3062    1.6450 H   0  0  0  0  0  0  0  0  0  0  0  0
   -3.2771    0.9524   -1.0113 H   0  0  0  0  0  0  0  0  0  0  0  0
   -2.5895    3.0562    0.1265 H   0  0  0  0  0  0  0  0  0  0  0  0
   -3.6579    2.1376    1.2015 H   0  0  0  0  0  0  0  0  0  0  0  0
   -0.9539    2.7056    1.4477 H   0  0  0  0  0  0  0  0  0  0  0  0
   -3.9831   -1.9463    0.6355 H   0  0  0  0  0  0  0  0  0  0  0  0
   -2.3181   -2.7259   -0.3938 H   0  0  0  0  0  0  0  0  0  0  0  0
    3.8525    1.5818    2.5371 H   0  0  0  0  0  0  0  0  0  0  0  0
    3.1776    2.4321    1.4019 H   0  0  0  0  0  0  0  0  0  0  0  0
  1  2  2  0
  2  3  1  0
  3  4  2  0
  4  5  1  0
  5  6  2  0
  5  7  1  0
  7  8  1  0
  8  9  1  0
  9 10  1  0
 10 11  1  0
 10 12  1  0
 12 13  1  0
  9 14  1  0
  8 15  1  0
  3 16  1  0
 16 17  2  0
 16 18  1  0
  6  1  1  0
 11  7  1  0
  1 20  1  0
  2 21  1  0
  4 22  1  0
  6 23  1  0
  7 24  1  6
  8 25  1  1
  9 26  1  1
 10 27  1  6
 12 28  1  0
 12 29  1  0
 13 30  1  0
 14 31  1  0
 15 32  1  0
 18 33  1  0
 18 34  1  0
M  CHG  2   5   1  19  -1
M  END
$$$$
