
     RDKit          3D

 51 54  0  0  0  0  0  0  0  0999 V2000
   -5.5556    4.1875    2.2741 O   0  0  0  0  0  0  0  0  0  0  0  0
   -4.3114    3.8003    1.8725 C   0  0  0  0  0  0  0  0  0  0  0  0
   -4.0965    2.4508    1.6315 C   0  0  0  0  0  0  0  0  0  0  0  0
   -2.8357    2.0118    1.2238 C   0  0  0  0  0  0  0  0  0  0  0  0
   -1.7868    2.9213    1.0197 C   0  0  0  0  0  0  0  0  0  0  0  0
   -0.4489    2.4329    0.5417 C   0  0  0  0  0  0  0  0  0  0  0  0
   -0.5037    0.9957    0.0216 C   0  0  0  0  0  0  0  0  0  0  0  0
    0.8259    0.4319   -0.0165 O   0  0  0  0  0  0  0  0  0  0  0  0
    1.5774    0.7459   -1.0979 C   0  0  0  0  0  0  0  0  0  0  0  0
    1.3054    1.5900   -1.9358 O   0  0  0  0  0  0  0  0  0  0  0  0
    2.8100   -0.0839   -1.1316 C   0  0  0  0  0  0  0  0  0  0  0  0
    3.8575    0.3205   -1.9728 C   0  0  0  0  0  0  0  0  0  0  0  0
    5.0119   -0.4520   -2.0367 C   0  0  0  0  0  0  0  0  0  0  0  0
    6.0653   -0.1031   -2.8387 O   0  0  0  0  0  0  0  0  0  0  0  0
    5.1301   -1.6213   -1.2838 C   0  0  0  0  0  0  0  0  0  0  0  0
    6.2800   -2.3572   -1.3751 O   0  0  0  0  0  0  0  0  0  0  0  0
    4.0848   -2.0338   -0.4631 C   0  0  0  0  0  0  0  0  0  0  0  0
    4.1953   -3.1928    0.2513 O   0  0  0  0  0  0  0  0  0  0  0  0
    2.9249   -1.2660   -0.3807 C   0  0  0  0  0  0  0  0  0  0  0  0
   -1.3811    0.1683    0.9794 C   0  0  0  0  0  0  0  0  0  0  0  0
   -2.7263    0.6624    1.0148 O   0  0  0  0  0  0  0  0  0  0  0  0
   -1.4173   -1.2946    0.5513 C   0  0  0  0  0  0  0  0  0  0  0  0
   -2.2838   -1.7439   -0.4650 C   0  0  0  0  0  0  0  0  0  0  0  0
   -2.2266   -3.0698   -0.8872 C   0  0  0  0  0  0  0  0  0  0  0  0
   -3.0482   -3.5534   -1.8670 O   0  0  0  0  0  0  0  0  0  0  0  0
   -1.3066   -3.9456   -0.3247 C   0  0  0  0  0  0  0  0  0  0  0  0
   -1.2253   -5.2426   -0.7532 O   0  0  0  0  0  0  0  0  0  0  0  0
   -0.4473   -3.5109    0.6726 C   0  0  0  0  0  0  0  0  0  0  0  0
    0.4903   -4.3578    1.1915 O   0  0  0  0  0  0  0  0  0  0  0  0
   -0.5099   -2.2027    1.1308 C   0  0  0  0  0  0  0  0  0  0  0  0
   -2.0300    4.2766    1.2889 C   0  0  0  0  0  0  0  0  0  0  0  0
   -1.0766    5.2479    1.1593 O   0  0  0  0  0  0  0  0  0  0  0  0
   -3.2837    4.7196    1.7103 C   0  0  0  0  0  0  0  0  0  0  0  0
   -5.5539    5.1510    2.4030 H   0  0  0  0  0  0  0  0  0  0  0  0
   -4.9067    1.7403    1.7688 H   0  0  0  0  0  0  0  0  0  0  0  0
   -0.0789    3.0803   -0.2615 H   0  0  0  0  0  0  0  0  0  0  0  0
    0.2716    2.5053    1.3662 H   0  0  0  0  0  0  0  0  0  0  0  0
   -0.9527    0.9781   -0.9824 H   0  0  0  0  0  0  0  0  0  0  0  0
    3.7579    1.2265   -2.5645 H   0  0  0  0  0  0  0  0  0  0  0  0
    5.8254    0.6965   -3.3391 H   0  0  0  0  0  0  0  0  0  0  0  0
    6.8449   -1.8646   -2.0009 H   0  0  0  0  0  0  0  0  0  0  0  0
    3.3468   -3.3970    0.6811 H   0  0  0  0  0  0  0  0  0  0  0  0
    2.1112   -1.5944    0.2565 H   0  0  0  0  0  0  0  0  0  0  0  0
   -0.9789    0.2071    2.0023 H   0  0  0  0  0  0  0  0  0  0  0  0
   -2.9899   -1.0492   -0.9133 H   0  0  0  0  0  0  0  0  0  0  0  0
   -3.6510   -2.8383   -2.1390 H   0  0  0  0  0  0  0  0  0  0  0  0
   -1.9189   -5.3106   -1.4418 H   0  0  0  0  0  0  0  0  0  0  0  0
    0.3147   -5.2130    0.7454 H   0  0  0  0  0  0  0  0  0  0  0  0
    0.1678   -1.8846    1.9183 H   0  0  0  0  0  0  0  0  0  0  0  0
   -0.2303    4.8576    0.8935 H   0  0  0  0  0  0  0  0  0  0  0  0
   -3.4362    5.7770    1.9019 H   0  0  0  0  0  0  0  0  0  0  0  0
  1  2  1  0
  2  3  2  0
  3  4  1  0
  4  5  2  0
  5  6  1  0
  6  7  1  0
  7  8  1  0
  8  9  1  0
  9 10  2  0
  9 11  1  0
 11 12  2  0
 12 13  1  0
 13 14  1  0
 13 15  2  0
 15 16  1  0
 15 17  1  0
 17 18  1  0
 17 19  2  0
  7 20  1  0
 20 21  1  0
 20 22  1  0
 22 23  2  0
 23 24  1  0
 24 25  1  0
 24 26  2  0
 26 27  1  0
 26 28  1  0
 28 29  1  0
 28 30  2  0
  5 31  1  0
 31 32  1  0
 31 33  2  0
 33  2  1  0
 21  4  1  0
 30 22  1  0
 19 11  1  0
  1 34  1  0
  3 35  1  0
  6 36  1  0
  6 37  1  0
  7 38  1  0
 12 39  1  0
 14 40  1  0
 16 41  1  0
 18 42  1  0
 19 43  1  0
 20 44  1  0
 23 45  1  0
 25 46  1  0
 27 47  1  0
 29 48  1  0
 30 49  1  0
 32 50  1  0
 33 51  1  0
M  END
$$$$
