
     RDKit          3D

 60 59  0  0  0  0  0  0  0  0999 V2000
   -9.5666   -0.9189   -0.7004 C   0  0  0  0  0  0  0  0  0  0  0  0
   -8.2065   -0.2813   -0.4540 C   0  0  0  0  0  0  0  0  0  0  0  0
   -7.4044   -1.0600    0.5917 C   0  0  0  0  0  0  0  0  0  0  0  0
   -6.0940   -0.3744    0.9925 C   0  0  0  0  0  0  0  0  0  0  0  0
   -5.1336   -0.1665   -0.1800 C   0  0  0  0  0  0  0  0  0  0  0  0
   -3.7913    0.4047    0.2879 C   0  0  0  0  0  0  0  0  0  0  0  0
   -2.8613    0.6369   -0.9045 C   0  0  0  0  0  0  0  0  0  0  0  0
   -1.5569    1.3546   -0.5451 C   0  0  0  0  0  0  0  0  0  0  0  0
   -0.6815    0.5763    0.4395 C   0  0  0  0  0  0  0  0  0  0  0  0
    0.7034    1.2030    0.6482 C   0  0  0  0  0  0  0  0  0  0  0  0
    1.5768    1.3147   -0.6058 C   0  0  0  0  0  0  0  0  0  0  0  0
    1.8079    0.0019   -1.3619 C   0  0  0  0  0  0  0  0  0  0  0  0
    2.5445   -1.0853   -0.5735 C   0  0  0  0  0  0  0  0  0  0  0  0
    3.9133   -0.6877   -0.0056 C   0  0  0  0  0  0  0  0  0  0  0  0
    4.9319   -0.3025   -1.0789 C   0  0  0  0  0  0  0  0  0  0  0  0
    6.2352    0.3399   -0.5762 C   0  0  2  0  0  0  0  0  0  0  0  0
    7.1345   -0.5515    0.3172 C   0  0  2  0  0  0  0  0  0  0  0  0
    6.7291   -0.6042    1.8033 C   0  0  0  0  0  0  0  0  0  0  0  0
    7.7055   -1.3663    2.5233 O   0  0  0  0  0  0  0  0  0  0  0  0
    8.5414   -0.0459    0.2951 N   0  0  0  0  0  0  0  0  0  0  0  0
    5.9633    1.5803    0.0803 O   0  0  0  0  0  0  0  0  0  0  0  0
   -9.4601   -1.9679   -1.0036 H   0  0  0  0  0  0  0  0  0  0  0  0
  -10.0935   -0.3861   -1.5000 H   0  0  0  0  0  0  0  0  0  0  0  0
  -10.1865   -0.8812    0.2019 H   0  0  0  0  0  0  0  0  0  0  0  0
   -8.3473    0.7561   -0.1279 H   0  0  0  0  0  0  0  0  0  0  0  0
   -7.6596   -0.2561   -1.4047 H   0  0  0  0  0  0  0  0  0  0  0  0
   -8.0147   -1.1878    1.4948 H   0  0  0  0  0  0  0  0  0  0  0  0
   -7.1901   -2.0663    0.2117 H   0  0  0  0  0  0  0  0  0  0  0  0
   -6.3163    0.5922    1.4609 H   0  0  0  0  0  0  0  0  0  0  0  0
   -5.6057   -0.9924    1.7575 H   0  0  0  0  0  0  0  0  0  0  0  0
   -4.9671   -1.1215   -0.6962 H   0  0  0  0  0  0  0  0  0  0  0  0
   -5.5784    0.5245   -0.9061 H   0  0  0  0  0  0  0  0  0  0  0  0
   -3.3277   -0.2938    0.9935 H   0  0  0  0  0  0  0  0  0  0  0  0
   -3.9569    1.3504    0.8187 H   0  0  0  0  0  0  0  0  0  0  0  0
   -2.6272   -0.3231   -1.3815 H   0  0  0  0  0  0  0  0  0  0  0  0
   -3.3811    1.2428   -1.6576 H   0  0  0  0  0  0  0  0  0  0  0  0
   -1.0148    1.5181   -1.4821 H   0  0  0  0  0  0  0  0  0  0  0  0
   -1.7800    2.3472   -0.1331 H   0  0  0  0  0  0  0  0  0  0  0  0
   -1.1820    0.5391    1.4152 H   0  0  0  0  0  0  0  0  0  0  0  0
   -0.5751   -0.4633    0.1089 H   0  0  0  0  0  0  0  0  0  0  0  0
    1.2364    0.6204    1.4094 H   0  0  0  0  0  0  0  0  0  0  0  0
    0.5752    2.2081    1.0706 H   0  0  0  0  0  0  0  0  0  0  0  0
    2.5403    1.7533   -0.3229 H   0  0  0  0  0  0  0  0  0  0  0  0
    1.1267    2.0362   -1.2970 H   0  0  0  0  0  0  0  0  0  0  0  0
    0.8482   -0.4036   -1.7022 H   0  0  0  0  0  0  0  0  0  0  0  0
    2.3630    0.2248   -2.2811 H   0  0  0  0  0  0  0  0  0  0  0  0
    2.6724   -1.9580   -1.2275 H   0  0  0  0  0  0  0  0  0  0  0  0
    1.9099   -1.4212    0.2554 H   0  0  0  0  0  0  0  0  0  0  0  0
    4.2924   -1.5596    0.5376 H   0  0  0  0  0  0  0  0  0  0  0  0
    3.7936    0.1204    0.7237 H   0  0  0  0  0  0  0  0  0  0  0  0
    5.1719   -1.1882   -1.6816 H   0  0  0  0  0  0  0  0  0  0  0  0
    4.4689    0.4225   -1.7590 H   0  0  0  0  0  0  0  0  0  0  0  0
    6.8058    0.5948   -1.4804 H   0  0  0  0  0  0  0  0  0  0  0  0
    7.1702   -1.5708   -0.0891 H   0  0  0  0  0  0  0  0  0  0  0  0
    5.7651   -1.0879    1.9629 H   0  0  0  0  0  0  0  0  0  0  0  0
    6.6925    0.3925    2.2577 H   0  0  0  0  0  0  0  0  0  0  0  0
    8.5523   -1.1228    2.0940 H   0  0  0  0  0  0  0  0  0  0  0  0
    8.5083    0.9356    0.5962 H   0  0  0  0  0  0  0  0  0  0  0  0
    8.8646   -0.0149   -0.6714 H   0  0  0  0  0  0  0  0  0  0  0  0
    5.4156    2.1197   -0.5184 H   0  0  0  0  0  0  0  0  0  0  0  0
  1  2  1  0
  2  3  1  0
  3  4  1  0
  4  5  1  0
  5  6  1  0
  6  7  1  0
  7  8  1  0
  8  9  1  0
  9 10  1  0
 10 11  1  0
 11 12  1  0
 12 13  1  0
 13 14  1  0
 14 15  1  0
 15 16  1  0
 16 17  1  0
 17 18  1  0
 18 19  1  0
 17 20  1  0
 16 21  1  0
  1 22  1  0
  1 23  1  0
  1 24  1  0
  2 25  1  0
  2 26  1  0
  3 27  1  0
  3 28  1  0
  4 29  1  0
  4 30  1  0
  5 31  1  0
  5 32  1  0
  6 33  1  0
  6 34  1  0
  7 35  1  0
  7 36  1  0
  8 37  1  0
  8 38  1  0
  9 39  1  0
  9 40  1  0
 10 41  1  0
 10 42  1  0
 11 43  1  0
 11 44  1  0
 12 45  1  0
 12 46  1  0
 13 47  1  0
 13 48  1  0
 14 49  1  0
 14 50  1  0
 15 51  1  0
 15 52  1  0
 16 53  1  6
 17 54  1  6
 18 55  1  0
 18 56  1  0
 19 57  1  0
 20 58  1  0
 20 59  1  0
 21 60  1  0
M  END
$$$$
