
     RDKit          3D

 19 18  0  0  0  0  0  0  0  0999 V2000
    2.7385    0.1035   -0.0263 C   0  0  0  0  0  0  0  0  0  0  0  0
    1.3198    0.3860    0.4419 C   0  0  0  0  0  0  0  0  0  0  0  0
    0.3228   -0.5827   -0.1901 C   0  0  0  0  0  0  0  0  0  0  0  0
   -1.1115   -0.3952    0.3085 C   0  0  0  0  0  0  0  0  0  0  0  0
   -1.7193    0.9614   -0.0604 C   0  0  0  0  0  0  0  0  0  0  0  0
   -3.0883    0.9859    0.3476 O   0  0  0  0  0  0  0  0  0  0  0  0
   -1.9428   -1.4071   -0.2859 O   0  0  0  0  0  0  0  0  0  0  0  0
    3.0390   -0.9196    0.2220 H   0  0  0  0  0  0  0  0  0  0  0  0
    3.4409    0.7878    0.4578 H   0  0  0  0  0  0  0  0  0  0  0  0
    2.8248    0.2340   -1.1087 H   0  0  0  0  0  0  0  0  0  0  0  0
    1.2794    0.3011    1.5337 H   0  0  0  0  0  0  0  0  0  0  0  0
    1.0642    1.4196    0.1843 H   0  0  0  0  0  0  0  0  0  0  0  0
    0.3480   -0.4902   -1.2835 H   0  0  0  0  0  0  0  0  0  0  0  0
    0.6328   -1.6143    0.0197 H   0  0  0  0  0  0  0  0  0  0  0  0
   -1.1736   -0.5400    1.3941 H   0  0  0  0  0  0  0  0  0  0  0  0
   -1.6973    1.1217   -1.1439 H   0  0  0  0  0  0  0  0  0  0  0  0
   -1.2049    1.7898    0.4342 H   0  0  0  0  0  0  0  0  0  0  0  0
   -3.4471    0.1261    0.0410 H   0  0  0  0  0  0  0  0  0  0  0  0
   -1.6253   -2.2677    0.0435 H   0  0  0  0  0  0  0  0  0  0  0  0
  1  2  1  0
  2  3  1  0
  3  4  1  0
  4  5  1  0
  5  6  1  0
  4  7  1  0
  1  8  1  0
  1  9  1  0
  1 10  1  0
  2 11  1  0
  2 12  1  0
  3 13  1  0
  3 14  1  0
  4 15  1  0
  5 16  1  0
  5 17  1  0
  6 18  1  0
  7 19  1  0
M  END
$$$$
