
     RDKit          3D

 57 60  0  0  0  0  0  0  0  0999 V2000
   -4.3052   -2.0911   -1.3144 C   0  0  0  0  0  0  0  0  0  0  0  0
   -3.9512   -1.7169    0.1066 C   0  0  0  0  0  0  0  0  0  0  0  0
   -4.4095   -2.3864    1.0365 O   0  0  0  0  0  0  0  0  0  0  0  0
   -3.0011   -0.5126    0.3326 C   0  0  1  0  0  0  0  0  0  0  0  0
   -3.1526    0.0382    1.7796 C   0  0  0  0  0  0  0  0  0  0  0  0
   -1.7349    0.4083    2.2647 C   0  0  0  0  0  0  0  0  0  0  0  0
   -0.8449    0.2720    1.0322 C   0  0  2  0  0  0  0  0  0  0  0  0
   -1.4845   -0.9017    0.2450 C   0  0  2  0  0  0  0  0  0  0  0  0
   -0.8395   -0.9226   -1.1532 C   0  0  0  0  0  0  0  0  0  0  0  0
    0.7006   -1.0056   -1.0886 C   0  0  0  0  0  0  0  0  0  0  0  0
    1.3227    0.0960   -0.1965 C   0  0  1  0  0  0  0  0  0  0  0  0
    0.6717    0.1101    1.2179 C   0  0  1  0  0  0  0  0  0  0  0  0
    1.2954    1.1787    2.0715 C   0  0  0  0  0  0  0  0  0  0  0  0
    2.4922    1.7354    1.8243 C   0  0  0  0  0  0  0  0  0  0  0  0
    3.3401    1.3417    0.6912 C   0  0  0  0  0  0  0  0  0  0  0  0
    4.4370    2.0449    0.3460 C   0  0  0  0  0  0  0  0  0  0  0  0
    5.3144    1.6607   -0.7833 C   0  0  0  0  0  0  0  0  0  0  0  0
    6.3250    2.3219   -1.0121 O   0  0  0  0  0  0  0  0  0  0  0  0
    4.9719    0.4343   -1.5829 C   0  0  0  0  0  0  0  0  0  0  0  0
    3.4768    0.1559   -1.5447 C   0  0  0  0  0  0  0  0  0  0  0  0
    2.8905    0.0961   -0.1062 C   0  0  2  0  0  0  0  0  0  0  0  0
    3.4265   -1.1708    0.6020 C   0  0  0  0  0  0  0  0  0  0  0  0
    3.0547    2.9278    2.9607 Cl  0  0  0  0  0  0  0  0  0  0  0  0
   -1.2467   -2.2797    0.9299 C   0  0  0  0  0  0  0  0  0  0  0  0
   -3.3975    0.4111   -0.7253 O   0  0  0  0  0  0  0  0  0  0  0  0
   -3.3593    1.7640   -0.6658 C   0  0  0  0  0  0  0  0  0  0  0  0
   -2.9871    2.4487    0.2724 O   0  0  0  0  0  0  0  0  0  0  0  0
   -3.8480    2.3311   -1.9649 C   0  0  0  0  0  0  0  0  0  0  0  0
   -4.8078   -3.0631   -1.3185 H   0  0  0  0  0  0  0  0  0  0  0  0
   -3.4061   -2.1745   -1.9253 H   0  0  0  0  0  0  0  0  0  0  0  0
   -4.9845   -1.3469   -1.7371 H   0  0  0  0  0  0  0  0  0  0  0  0
   -3.5499   -0.7089    2.4760 H   0  0  0  0  0  0  0  0  0  0  0  0
   -3.8350    0.8901    1.8424 H   0  0  0  0  0  0  0  0  0  0  0  0
   -1.4172   -0.2718    3.0634 H   0  0  0  0  0  0  0  0  0  0  0  0
   -1.7145    1.4243    2.6724 H   0  0  0  0  0  0  0  0  0  0  0  0
   -0.9706    1.1952    0.4521 H   0  0  0  0  0  0  0  0  0  0  0  0
   -1.1057   -0.0168   -1.7113 H   0  0  0  0  0  0  0  0  0  0  0  0
   -1.2118   -1.7696   -1.7389 H   0  0  0  0  0  0  0  0  0  0  0  0
    1.0723   -0.9146   -2.1150 H   0  0  0  0  0  0  0  0  0  0  0  0
    1.0041   -1.9972   -0.7387 H   0  0  0  0  0  0  0  0  0  0  0  0
    1.0476    1.0468   -0.6849 H   0  0  0  0  0  0  0  0  0  0  0  0
    0.8629   -0.8345    1.7368 H   0  0  0  0  0  0  0  0  0  0  0  0
    0.7459    1.4816    2.9605 H   0  0  0  0  0  0  0  0  0  0  0  0
    4.7707    2.9343    0.8694 H   0  0  0  0  0  0  0  0  0  0  0  0
    5.2761    0.6031   -2.6219 H   0  0  0  0  0  0  0  0  0  0  0  0
    5.5507   -0.4091   -1.1942 H   0  0  0  0  0  0  0  0  0  0  0  0
    2.9643    0.9440   -2.1143 H   0  0  0  0  0  0  0  0  0  0  0  0
    3.2939   -0.7851   -2.0771 H   0  0  0  0  0  0  0  0  0  0  0  0
    4.5169   -1.1448    0.7079 H   0  0  0  0  0  0  0  0  0  0  0  0
    3.1775   -2.0770    0.0403 H   0  0  0  0  0  0  0  0  0  0  0  0
    3.0266   -1.2878    1.6139 H   0  0  0  0  0  0  0  0  0  0  0  0
   -0.1887   -2.5283    1.0420 H   0  0  0  0  0  0  0  0  0  0  0  0
   -1.6857   -3.0880    0.3336 H   0  0  0  0  0  0  0  0  0  0  0  0
   -1.6896   -2.3327    1.9295 H   0  0  0  0  0  0  0  0  0  0  0  0
   -3.8395    3.4236   -1.9102 H   0  0  0  0  0  0  0  0  0  0  0  0
   -4.8730    2.0010   -2.1518 H   0  0  0  0  0  0  0  0  0  0  0  0
   -3.1875    2.0170   -2.7771 H   0  0  0  0  0  0  0  0  0  0  0  0
  1  2  1  0
  2  3  2  0
  2  4  1  0
  4  5  1  0
  5  6  1  0
  6  7  1  0
  7  8  1  0
  8  9  1  0
  9 10  1  0
 10 11  1  0
 11 12  1  0
 12 13  1  0
 13 14  2  0
 14 15  1  0
 15 16  2  0
 16 17  1  0
 17 18  2  0
 17 19  1  0
 19 20  1  0
 20 21  1  0
 21 22  1  1
 14 23  1  0
  8 24  1  1
  4 25  1  6
 25 26  1  0
 26 27  2  0
 26 28  1  0
  8  4  1  0
 12  7  1  0
 21 11  1  0
 21 15  1  0
  1 29  1  0
  1 30  1  0
  1 31  1  0
  5 32  1  0
  5 33  1  0
  6 34  1  0
  6 35  1  0
  7 36  1  6
  9 37  1  0
  9 38  1  0
 10 39  1  0
 10 40  1  0
 11 41  1  6
 12 42  1  1
 13 43  1  0
 16 44  1  0
 19 45  1  0
 19 46  1  0
 20 47  1  0
 20 48  1  0
 22 49  1  0
 22 50  1  0
 22 51  1  0
 24 52  1  0
 24 53  1  0
 24 54  1  0
 28 55  1  0
 28 56  1  0
 28 57  1  0
M  END
$$$$
