
     RDKit          3D

 15 15  0  0  0  0  0  0  0  0999 V2000
    1.7144    0.9933    0.2839 C   0  0  0  0  0  0  0  0  0  0  0  0
    0.3513    0.9391   -0.0127 C   0  0  0  0  0  0  0  0  0  0  0  0
   -0.2649   -0.3030   -0.1842 C   0  0  0  0  0  0  0  0  0  0  0  0
    0.5247   -1.4411   -0.0749 C   0  0  0  0  0  0  0  0  0  0  0  0
    1.8498   -1.4152    0.2190 N   0  0  0  0  0  0  0  0  0  0  0  0
    2.4141   -0.1988    0.3929 C   0  0  0  0  0  0  0  0  0  0  0  0
   -1.7043   -0.4623   -0.4871 C   0  0  0  0  0  0  0  0  0  0  0  0
   -2.1486   -1.4993   -0.9602 O   0  0  0  0  0  0  0  0  0  0  0  0
   -2.5395    0.5781   -0.1715 N   0  0  0  0  0  0  0  0  0  0  0  0
    2.2233    1.9430    0.4271 H   0  0  0  0  0  0  0  0  0  0  0  0
   -0.2042    1.8644   -0.1279 H   0  0  0  0  0  0  0  0  0  0  0  0
    0.1049   -2.4357   -0.2146 H   0  0  0  0  0  0  0  0  0  0  0  0
    3.4771   -0.2093    0.6297 H   0  0  0  0  0  0  0  0  0  0  0  0
   -2.2721    1.2787    0.5128 H   0  0  0  0  0  0  0  0  0  0  0  0
   -3.5261    0.3681   -0.2322 H   0  0  0  0  0  0  0  0  0  0  0  0
  1  2  2  0
  2  3  1  0
  3  4  2  0
  4  5  1  0
  5  6  2  0
  3  7  1  0
  7  8  2  0
  7  9  1  0
  6  1  1  0
  1 10  1  0
  2 11  1  0
  4 12  1  0
  6 13  1  0
  9 14  1  0
  9 15  1  0
M  END
$$$$
