
     RDKit          3D

 14 14  0  0  0  0  0  0  0  0999 V2000
   -1.6783    0.8808    0.1400 C   0  0  0  0  0  0  0  0  0  0  0  0
   -0.2886    0.9844    0.1163 C   0  0  0  0  0  0  0  0  0  0  0  0
    0.4808   -0.1716   -0.0312 C   0  0  0  0  0  0  0  0  0  0  0  0
   -0.1817   -1.3861   -0.1489 C   0  0  0  0  0  0  0  0  0  0  0  0
   -1.5324   -1.5142   -0.1289 N   0  0  0  0  0  0  0  0  0  0  0  0
   -2.2480   -0.3771    0.0152 C   0  0  0  0  0  0  0  0  0  0  0  0
    1.9540   -0.1654   -0.0678 C   0  0  0  0  0  0  0  0  0  0  0  0
    2.6678   -1.1423   -0.1941 O   0  0  0  0  0  0  0  0  0  0  0  0
    2.4707    1.0701    0.0559 O   0  0  0  0  0  0  0  0  0  0  0  0
   -2.3022    1.7607    0.2533 H   0  0  0  0  0  0  0  0  0  0  0  0
    0.1811    1.9594    0.2124 H   0  0  0  0  0  0  0  0  0  0  0  0
    0.3632   -2.3199   -0.2661 H   0  0  0  0  0  0  0  0  0  0  0  0
   -3.3268   -0.5075    0.0280 H   0  0  0  0  0  0  0  0  0  0  0  0
    3.4404    0.9287    0.0157 H   0  0  0  0  0  0  0  0  0  0  0  0
  1  2  2  0
  2  3  1  0
  3  4  2  0
  4  5  1  0
  5  6  2  0
  3  7  1  0
  7  8  2  0
  7  9  1  0
  6  1  1  0
  1 10  1  0
  2 11  1  0
  4 12  1  0
  6 13  1  0
  9 14  1  0
M  END
$$$$
