
     RDKit          3D

 29 30  0  0  0  0  0  0  0  0999 V2000
    2.2784   -0.9299   -1.0861 C   0  0  0  0  0  0  0  0  0  0  0  0
    3.4936   -0.5564   -0.9156 N   0  0  0  0  0  0  0  0  0  0  0  0
    3.6909    0.5709   -0.1922 C   0  0  0  0  0  0  0  0  0  0  0  0
    2.7374    1.2593    0.3297 N   0  0  0  0  0  0  0  0  0  0  0  0
    1.4483    0.8405    0.1866 C   0  0  0  0  0  0  0  0  0  0  0  0
    0.5348    1.4331    0.7585 O   0  0  0  0  0  0  0  0  0  0  0  0
    1.2087   -0.2593   -0.5960 N   0  0  0  0  0  0  0  0  0  0  0  0
   -0.1249   -0.8057   -0.7499 C   0  0  1  0  0  0  0  0  0  0  0  0
   -0.7010   -1.4705    0.5116 C   0  0  1  0  0  0  0  0  0  0  0  0
   -1.8194   -0.5324    0.9360 C   0  0  1  0  0  0  0  0  0  0  0  0
   -2.2340    0.0973   -0.3912 C   0  0  2  0  0  0  0  0  0  0  0  0
   -1.0306    0.2275   -1.1743 O   0  0  0  0  0  0  0  0  0  0  0  0
   -2.8964    1.4672   -0.2476 C   0  0  0  0  0  0  0  0  0  0  0  0
   -2.1673    2.3309    0.6195 O   0  0  0  0  0  0  0  0  0  0  0  0
   -2.8746   -1.2597    1.5659 O   0  0  0  0  0  0  0  0  0  0  0  0
   -1.2472   -2.7605    0.1850 O   0  0  0  0  0  0  0  0  0  0  0  0
    4.9715    0.9826   -0.0429 N   0  0  0  0  0  0  0  0  0  0  0  0
    2.0522   -1.8400   -1.6637 H   0  0  0  0  0  0  0  0  0  0  0  0
   -0.0998   -1.5392   -1.5654 H   0  0  0  0  0  0  0  0  0  0  0  0
    0.0379   -1.6328    1.3021 H   0  0  0  0  0  0  0  0  0  0  0  0
   -1.4269    0.1992    1.6479 H   0  0  0  0  0  0  0  0  0  0  0  0
   -2.9141   -0.5635   -0.9435 H   0  0  0  0  0  0  0  0  0  0  0  0
   -2.9712    1.9632   -1.2204 H   0  0  0  0  0  0  0  0  0  0  0  0
   -3.9026    1.3612    0.1690 H   0  0  0  0  0  0  0  0  0  0  0  0
   -1.2132    2.2516    0.3969 H   0  0  0  0  0  0  0  0  0  0  0  0
   -3.4495   -0.5977    1.9957 H   0  0  0  0  0  0  0  0  0  0  0  0
   -2.0092   -2.8699    0.7952 H   0  0  0  0  0  0  0  0  0  0  0  0
    5.5815    0.6647   -0.7839 H   0  0  0  0  0  0  0  0  0  0  0  0
    5.0465    1.9682    0.1731 H   0  0  0  0  0  0  0  0  0  0  0  0
  1  2  2  0
  2  3  1  0
  3  4  2  0
  4  5  1  0
  5  6  2  0
  5  7  1  0
  7  8  1  0
  8  9  1  0
  9 10  1  0
 10 11  1  0
 11 12  1  0
 11 13  1  0
 13 14  1  0
 10 15  1  0
  9 16  1  0
  3 17  1  0
  7  1  1  0
 12  8  1  0
  1 18  1  0
  8 19  1  6
  9 20  1  1
 10 21  1  1
 11 22  1  6
 13 23  1  0
 13 24  1  0
 14 25  1  0
 15 26  1  0
 16 27  1  0
 17 28  1  0
 17 29  1  0
M  END
$$$$
