
     RDKit          3D

 32 34  0  0  0  0  0  0  0  0999 V2000
    5.3836   -0.1389   -1.2017 C   0  0  0  0  0  0  0  0  0  0  0  0
    5.1993   -1.3359   -0.5091 C   0  0  0  0  0  0  0  0  0  0  0  0
    4.0365   -1.5392    0.2349 C   0  0  0  0  0  0  0  0  0  0  0  0
    3.0492   -0.5470    0.2738 C   0  0  0  0  0  0  0  0  0  0  0  0
    3.2468    0.6637   -0.4026 C   0  0  0  0  0  0  0  0  0  0  0  0
    4.4122    0.8613   -1.1454 C   0  0  0  0  0  0  0  0  0  0  0  0
    1.8306   -0.7851    1.0919 C   0  0  0  0  0  0  0  0  0  0  0  0
    2.0065   -1.2604    2.2159 O   0  0  0  0  0  0  0  0  0  0  0  0
    0.5089   -0.4488    0.5787 C   0  0  0  0  0  0  0  0  0  0  0  0
   -0.6218   -0.1163    1.3165 C   0  0  0  0  0  0  0  0  0  0  0  0
   -1.7479    0.1159    0.4873 C   0  0  0  0  0  0  0  0  0  0  0  0
   -1.4418   -0.0819   -0.8279 C   0  0  0  0  0  0  0  0  0  0  0  0
    0.1468   -0.5325   -1.1117 S   0  0  0  0  0  0  0  0  0  0  0  0
   -2.3119    0.0618   -1.8706 N   0  0  0  0  0  0  0  0  0  0  0  0
   -3.6110    0.4593   -1.6190 C   0  0  0  0  0  0  0  0  0  0  0  0
   -4.3772    0.6676   -2.5553 O   0  0  0  0  0  0  0  0  0  0  0  0
   -4.0077    0.6517   -0.1790 C   0  0  0  0  0  0  0  0  0  0  0  0
   -3.0865    0.4953    0.7977 C   0  0  0  0  0  0  0  0  0  0  0  0
   -5.3662    1.0123    0.2486 C   0  0  0  0  0  0  0  0  0  0  0  0
   -5.6518    1.6161    1.2702 O   0  0  0  0  0  0  0  0  0  0  0  0
   -6.3254    0.5445   -0.5623 O   0  0  0  0  0  0  0  0  0  0  0  0
   -0.6298   -0.0163    2.6657 N   0  0  0  0  0  0  0  0  0  0  0  0
    6.2923    0.0192   -1.7781 H   0  0  0  0  0  0  0  0  0  0  0  0
    5.9643   -2.1079   -0.5435 H   0  0  0  0  0  0  0  0  0  0  0  0
    3.9020   -2.4687    0.7842 H   0  0  0  0  0  0  0  0  0  0  0  0
    2.5115    1.4625   -0.3471 H   0  0  0  0  0  0  0  0  0  0  0  0
    4.5680    1.7988   -1.6741 H   0  0  0  0  0  0  0  0  0  0  0  0
   -2.0164   -0.0739   -2.8272 H   0  0  0  0  0  0  0  0  0  0  0  0
   -3.3530    0.6465    1.8401 H   0  0  0  0  0  0  0  0  0  0  0  0
   -7.1661    0.8605   -0.1734 H   0  0  0  0  0  0  0  0  0  0  0  0
    0.1517   -0.4250    3.1877 H   0  0  0  0  0  0  0  0  0  0  0  0
   -1.4957   -0.0591    3.1942 H   0  0  0  0  0  0  0  0  0  0  0  0
  1  2  2  0
  2  3  1  0
  3  4  2  0
  4  5  1  0
  5  6  2  0
  4  7  1  0
  7  8  2  0
  7  9  1  0
  9 10  2  0
 10 11  1  0
 11 12  2  0
 12 13  1  0
 12 14  1  0
 14 15  1  0
 15 16  2  0
 15 17  1  0
 17 18  2  0
 17 19  1  0
 19 20  2  0
 19 21  1  0
 10 22  1  0
  6  1  1  0
 13  9  1  0
 18 11  1  0
  1 23  1  0
  2 24  1  0
  3 25  1  0
  5 26  1  0
  6 27  1  0
 14 28  1  0
 18 29  1  0
 21 30  1  0
 22 31  1  0
 22 32  1  0
M  END
$$$$
