
     RDKit          3D

136135  0  0  0  0  0  0  0  0999 V2000
   10.6991    1.2004    5.3859 C   0  0  0  0  0  0  0  0  0  0  0  0
   12.2234    1.2336    5.4500 C   0  0  0  0  0  0  0  0  0  0  0  0
   12.9194   -0.0671    5.0163 C   0  0  0  0  0  0  0  0  0  0  0  0
   12.9326   -0.3478    3.5105 C   0  0  0  0  0  0  0  0  0  0  0  0
   11.5849   -0.8201    2.9458 C   0  0  0  0  0  0  0  0  0  0  0  0
   11.6945   -1.2699    1.4829 C   0  0  0  0  0  0  0  0  0  0  0  0
   12.2153   -0.2201    0.4995 C   0  0  0  0  0  0  0  0  0  0  0  0
   11.6060    1.1877    0.5487 C   0  0  0  0  0  0  0  0  0  0  0  0
   10.2444    1.3501   -0.1332 C   0  0  0  0  0  0  0  0  0  0  0  0
    9.0704    0.7080    0.6006 C   0  0  0  0  0  0  0  0  0  0  0  0
    7.7060    1.0209   -0.0220 C   0  0  0  0  0  0  0  0  0  0  0  0
    7.5699    0.4903   -1.4501 C   0  0  0  0  0  0  0  0  0  0  0  0
    6.2891    0.9124   -2.1788 C   0  0  0  0  0  0  0  0  0  0  0  0
    4.9917    0.3623   -1.6111 C   0  0  0  0  0  0  0  0  0  0  0  0
    4.3797    1.2173   -0.5057 C   0  0  0  0  0  0  0  0  0  0  0  0
    3.1259    0.5780    0.0822 C   0  0  0  0  0  0  0  0  0  0  0  0
    1.9178    0.6417   -0.8388 C   0  0  0  0  0  0  0  0  0  0  0  0
    0.7623   -0.0815   -0.1981 C   0  0  0  0  0  0  0  0  0  0  0  0
    0.0678    0.3637    0.7061 O   0  0  0  0  0  0  0  0  0  0  0  0
    0.5666   -1.2801   -0.7868 O   0  0  0  0  0  0  0  0  0  0  0  0
   -0.3506   -2.1835   -0.1977 C   0  0  0  0  0  0  0  0  0  0  0  0
   -1.5257   -2.4096   -1.1667 C   0  0  2  0  0  0  0  0  0  0  0  0
   -0.9787   -2.9732   -2.4854 C   0  0  0  0  0  0  0  0  0  0  0  0
   -2.0276   -3.1724   -3.3992 O   0  0  0  0  0  0  0  0  0  0  0  0
   -1.6175   -3.3893   -4.9820 P   0  0  0  0  0  5  0  0  0  0  0  0
   -2.6378   -2.9570   -5.9778 O   0  0  0  0  0  0  0  0  0  0  0  0
   -1.3242   -4.9704   -5.0128 O   0  0  0  0  0  0  0  0  0  0  0  0
   -0.1228   -2.7860   -5.1186 O   0  0  0  0  0  0  0  0  0  0  0  0
    0.0770   -1.9455   -6.2960 C   0  0  0  0  0  0  0  0  0  0  0  0
    1.5325   -1.5334   -6.4220 C   0  0  1  0  0  0  0  0  0  0  0  0
    1.8596   -0.2469   -5.6430 C   0  0  0  0  0  0  0  0  0  0  0  0
    1.0734    0.6597   -5.3673 O   0  0  0  0  0  0  0  0  0  0  0  0
    3.1693   -0.0713   -5.3696 O   0  0  0  0  0  0  0  0  0  0  0  0
    2.5020   -2.6139   -6.0701 N   0  0  0  0  0  0  0  0  0  0  0  0
   -2.1368   -1.1327   -1.4556 O   0  0  0  0  0  0  0  0  0  0  0  0
   -3.4700   -1.0174   -1.1643 C   0  0  0  0  0  0  0  0  0  0  0  0
   -4.1411   -1.9082   -0.6565 O   0  0  0  0  0  0  0  0  0  0  0  0
   -3.9616    0.3750   -1.4555 C   0  0  0  0  0  0  0  0  0  0  0  0
   -5.4917    0.4135   -1.5427 C   0  0  0  0  0  0  0  0  0  0  0  0
   -6.0436    1.7970   -1.8634 C   0  0  0  0  0  0  0  0  0  0  0  0
   -5.8154    2.8810   -0.7970 C   0  0  0  0  0  0  0  0  0  0  0  0
   -6.3547    2.5513    0.6070 C   0  0  0  0  0  0  0  0  0  0  0  0
   -7.8211    2.1268    0.6640 C   0  0  0  0  0  0  0  0  0  0  0  0
   -8.7997    3.1901    0.1523 C   0  0  0  0  0  0  0  0  0  0  0  0
  -10.2261    2.6558    0.0151 C   0  0  0  0  0  0  0  0  0  0  0  0
  -10.8641    2.3021    1.3610 C   0  0  0  0  0  0  0  0  0  0  0  0
  -12.2686    1.6990    1.2121 C   0  0  0  0  0  0  0  0  0  0  0  0
  -12.3309    0.3790    0.4244 C   0  0  0  0  0  0  0  0  0  0  0  0
  -11.4432   -0.7522    0.9554 C   0  0  0  0  0  0  0  0  0  0  0  0
  -11.8905   -1.2485    2.3328 C   0  0  0  0  0  0  0  0  0  0  0  0
  -11.0024   -2.3624    2.9032 C   0  0  0  0  0  0  0  0  0  0  0  0
   -9.5418   -1.9661    3.1737 C   0  0  0  0  0  0  0  0  0  0  0  0
   -9.3980   -0.7593    4.1037 C   0  0  0  0  0  0  0  0  0  0  0  0
   -7.9397   -0.4521    4.4013 C   0  0  0  0  0  0  0  0  0  0  0  0
   10.3038    0.2022    5.5817 H   0  0  0  0  0  0  0  0  0  0  0  0
   10.2839    1.8839    6.1368 H   0  0  0  0  0  0  0  0  0  0  0  0
   10.3398    1.5403    4.4055 H   0  0  0  0  0  0  0  0  0  0  0  0
   12.6059    2.0801    4.8554 H   0  0  0  0  0  0  0  0  0  0  0  0
   12.5103    1.4273    6.4900 H   0  0  0  0  0  0  0  0  0  0  0  0
   12.4949   -0.9226    5.5598 H   0  0  0  0  0  0  0  0  0  0  0  0
   13.9641    0.0034    5.3368 H   0  0  0  0  0  0  0  0  0  0  0  0
   13.2832    0.5418    2.9865 H   0  0  0  0  0  0  0  0  0  0  0  0
   13.6729   -1.1367    3.3355 H   0  0  0  0  0  0  0  0  0  0  0  0
   10.8392   -0.0346    3.0179 H   0  0  0  0  0  0  0  0  0  0  0  0
   11.2138   -1.6544    3.5465 H   0  0  0  0  0  0  0  0  0  0  0  0
   12.3549   -2.1486    1.4368 H   0  0  0  0  0  0  0  0  0  0  0  0
   10.7148   -1.6394    1.1600 H   0  0  0  0  0  0  0  0  0  0  0  0
   13.2925   -0.1102    0.6669 H   0  0  0  0  0  0  0  0  0  0  0  0
   12.1176   -0.6299   -0.5266 H   0  0  0  0  0  0  0  0  0  0  0  0
   12.3049    1.8547    0.0204 H   0  0  0  0  0  0  0  0  0  0  0  0
   11.5604    1.5765    1.5751 H   0  0  0  0  0  0  0  0  0  0  0  0
   10.3344    0.9402   -1.1550 H   0  0  0  0  0  0  0  0  0  0  0  0
   10.0426    2.4229   -0.2499 H   0  0  0  0  0  0  0  0  0  0  0  0
    9.0650    1.0643    1.6441 H   0  0  0  0  0  0  0  0  0  0  0  0
    9.1914   -0.3784    0.6369 H   0  0  0  0  0  0  0  0  0  0  0  0
    7.5341    2.1010   -0.0077 H   0  0  0  0  0  0  0  0  0  0  0  0
    6.9566    0.5550    0.6126 H   0  0  0  0  0  0  0  0  0  0  0  0
    8.4014    0.8392   -2.0646 H   0  0  0  0  0  0  0  0  0  0  0  0
    7.6424   -0.6094   -1.4435 H   0  0  0  0  0  0  0  0  0  0  0  0
    6.2470    2.0133   -2.2426 H   0  0  0  0  0  0  0  0  0  0  0  0
    6.3822    0.5555   -3.2129 H   0  0  0  0  0  0  0  0  0  0  0  0
    4.2781    0.3023   -2.4327 H   0  0  0  0  0  0  0  0  0  0  0  0
    5.1468   -0.6784   -1.2654 H   0  0  0  0  0  0  0  0  0  0  0  0
    5.0805    1.3532    0.3151 H   0  0  0  0  0  0  0  0  0  0  0  0
    4.1592    2.2291   -0.8801 H   0  0  0  0  0  0  0  0  0  0  0  0
    3.3216   -0.4684    0.3552 H   0  0  0  0  0  0  0  0  0  0  0  0
    2.8547    1.0891    1.0229 H   0  0  0  0  0  0  0  0  0  0  0  0
    1.6210    1.6910   -1.0460 H   0  0  0  0  0  0  0  0  0  0  0  0
    2.1148    0.1955   -1.8266 H   0  0  0  0  0  0  0  0  0  0  0  0
   -0.7287   -1.8094    0.7744 H   0  0  0  0  0  0  0  0  0  0  0  0
    0.1577   -3.1326   -0.0042 H   0  0  0  0  0  0  0  0  0  0  0  0
   -2.2349   -3.1168   -0.7462 H   0  0  0  0  0  0  0  0  0  0  0  0
   -0.2433   -2.2777   -2.8818 H   0  0  0  0  0  0  0  0  0  0  0  0
   -0.4975   -3.9520   -2.3112 H   0  0  0  0  0  0  0  0  0  0  0  0
   -0.8217   -5.2950   -4.2388 H   0  0  0  0  0  0  0  0  0  0  0  0
   -0.2076   -2.5436   -7.1595 H   0  0  0  0  0  0  0  0  0  0  0  0
   -0.5779   -1.0829   -6.2044 H   0  0  0  0  0  0  0  0  0  0  0  0
    1.7177   -1.2706   -7.4644 H   0  0  0  0  0  0  0  0  0  0  0  0
    3.1942    0.7872   -4.9086 H   0  0  0  0  0  0  0  0  0  0  0  0
    2.1680   -3.5083   -6.4326 H   0  0  0  0  0  0  0  0  0  0  0  0
    3.4016   -2.4154   -6.5253 H   0  0  0  0  0  0  0  0  0  0  0  0
   -3.5415    0.7081   -2.4152 H   0  0  0  0  0  0  0  0  0  0  0  0
   -3.5822    1.0311   -0.6595 H   0  0  0  0  0  0  0  0  0  0  0  0
   -5.9237    0.0338   -0.6073 H   0  0  0  0  0  0  0  0  0  0  0  0
   -5.8107   -0.2809   -2.3228 H   0  0  0  0  0  0  0  0  0  0  0  0
   -5.6185    2.1555   -2.8169 H   0  0  0  0  0  0  0  0  0  0  0  0
   -7.1182    1.7116   -2.0531 H   0  0  0  0  0  0  0  0  0  0  0  0
   -4.7413    3.0986   -0.7193 H   0  0  0  0  0  0  0  0  0  0  0  0
   -6.2723    3.8164   -1.1476 H   0  0  0  0  0  0  0  0  0  0  0  0
   -5.7429    1.7525    1.0459 H   0  0  0  0  0  0  0  0  0  0  0  0
   -6.2047    3.4287    1.2485 H   0  0  0  0  0  0  0  0  0  0  0  0
   -8.0508    1.8938    1.7139 H   0  0  0  0  0  0  0  0  0  0  0  0
   -7.9645    1.1961    0.1065 H   0  0  0  0  0  0  0  0  0  0  0  0
   -8.4890    3.5393   -0.8402 H   0  0  0  0  0  0  0  0  0  0  0  0
   -8.7831    4.0657    0.8108 H   0  0  0  0  0  0  0  0  0  0  0  0
  -10.8411    3.4105   -0.4808 H   0  0  0  0  0  0  0  0  0  0  0  0
  -10.2003    1.7855   -0.6469 H   0  0  0  0  0  0  0  0  0  0  0  0
  -10.2321    1.6098    1.9210 H   0  0  0  0  0  0  0  0  0  0  0  0
  -10.9325    3.2083    1.9743 H   0  0  0  0  0  0  0  0  0  0  0  0
  -12.9223    2.4244    0.7225 H   0  0  0  0  0  0  0  0  0  0  0  0
  -12.6875    1.5443    2.2195 H   0  0  0  0  0  0  0  0  0  0  0  0
  -12.0695    0.5692   -0.6219 H   0  0  0  0  0  0  0  0  0  0  0  0
  -13.3753    0.0328    0.4052 H   0  0  0  0  0  0  0  0  0  0  0  0
  -10.3937   -0.4269    0.9820 H   0  0  0  0  0  0  0  0  0  0  0  0
  -11.4748   -1.5830    0.2480 H   0  0  0  0  0  0  0  0  0  0  0  0
  -11.9437   -0.4317    3.0508 H   0  0  0  0  0  0  0  0  0  0  0  0
  -12.9143   -1.6433    2.2480 H   0  0  0  0  0  0  0  0  0  0  0  0
  -11.4463   -2.7139    3.8386 H   0  0  0  0  0  0  0  0  0  0  0  0
  -11.0069   -3.2176    2.2134 H   0  0  0  0  0  0  0  0  0  0  0  0
   -9.0324   -1.7595    2.2232 H   0  0  0  0  0  0  0  0  0  0  0  0
   -9.0244   -2.8313    3.6171 H   0  0  0  0  0  0  0  0  0  0  0  0
   -9.9299   -0.9390    5.0486 H   0  0  0  0  0  0  0  0  0  0  0  0
   -9.8462    0.1242    3.6464 H   0  0  0  0  0  0  0  0  0  0  0  0
   -7.8495    0.5235    4.8958 H   0  0  0  0  0  0  0  0  0  0  0  0
   -7.3424   -0.4184    3.4794 H   0  0  0  0  0  0  0  0  0  0  0  0
   -7.5048   -1.2104    5.0635 H   0  0  0  0  0  0  0  0  0  0  0  0
  1  2  1  0
  2  3  1  0
  3  4  1  0
  4  5  1  0
  5  6  1  0
  6  7  1  0
  7  8  1  0
  8  9  1  0
  9 10  1  0
 10 11  1  0
 11 12  1  0
 12 13  1  0
 13 14  1  0
 14 15  1  0
 15 16  1  0
 16 17  1  0
 17 18  1  0
 18 19  2  0
 18 20  1  0
 20 21  1  0
 21 22  1  0
 22 23  1  0
 23 24  1  0
 24 25  1  0
 25 26  2  0
 25 27  1  0
 25 28  1  0
 28 29  1  0
 29 30  1  0
 30 31  1  0
 31 32  2  0
 31 33  1  0
 30 34  1  0
 22 35  1  0
 35 36  1  0
 36 37  2  0
 36 38  1  0
 38 39  1  0
 39 40  1  0
 40 41  1  0
 41 42  1  0
 42 43  1  0
 43 44  1  0
 44 45  1  0
 45 46  1  0
 46 47  1  0
 47 48  1  0
 48 49  1  0
 49 50  1  0
 50 51  1  0
 51 52  1  0
 52 53  1  0
 53 54  1  0
  1 55  1  0
  1 56  1  0
  1 57  1  0
  2 58  1  0
  2 59  1  0
  3 60  1  0
  3 61  1  0
  4 62  1  0
  4 63  1  0
  5 64  1  0
  5 65  1  0
  6 66  1  0
  6 67  1  0
  7 68  1  0
  7 69  1  0
  8 70  1  0
  8 71  1  0
  9 72  1  0
  9 73  1  0
 10 74  1  0
 10 75  1  0
 11 76  1  0
 11 77  1  0
 12 78  1  0
 12 79  1  0
 13 80  1  0
 13 81  1  0
 14 82  1  0
 14 83  1  0
 15 84  1  0
 15 85  1  0
 16 86  1  0
 16 87  1  0
 17 88  1  0
 17 89  1  0
 21 90  1  0
 21 91  1  0
 22 92  1  1
 23 93  1  0
 23 94  1  0
 27 95  1  0
 29 96  1  0
 29 97  1  0
 30 98  1  6
 33 99  1  0
 34100  1  0
 34101  1  0
 38102  1  0
 38103  1  0
 39104  1  0
 39105  1  0
 40106  1  0
 40107  1  0
 41108  1  0
 41109  1  0
 42110  1  0
 42111  1  0
 43112  1  0
 43113  1  0
 44114  1  0
 44115  1  0
 45116  1  0
 45117  1  0
 46118  1  0
 46119  1  0
 47120  1  0
 47121  1  0
 48122  1  0
 48123  1  0
 49124  1  0
 49125  1  0
 50126  1  0
 50127  1  0
 51128  1  0
 51129  1  0
 52130  1  0
 52131  1  0
 53132  1  0
 53133  1  0
 54134  1  0
 54135  1  0
 54136  1  0
M  END
$$$$
