
     RDKit          3D

 55 56  0  0  0  0  0  0  0  0999 V2000
   -5.1899    4.5663    0.9908 C   0  0  0  0  0  0  0  0  0  0  0  0
   -5.9936    3.5173    0.4721 O   0  0  0  0  0  0  0  0  0  0  0  0
   -5.4553    2.2581    0.4470 C   0  0  0  0  0  0  0  0  0  0  0  0
   -4.1608    1.9270    0.8569 C   0  0  0  0  0  0  0  0  0  0  0  0
   -3.6922    0.6031    0.7737 C   0  0  0  0  0  0  0  0  0  0  0  0
   -4.5490   -0.4055    0.3036 C   0  0  0  0  0  0  0  0  0  0  0  0
   -5.8434   -0.0929   -0.1125 C   0  0  0  0  0  0  0  0  0  0  0  0
   -6.2822    1.2364   -0.0352 C   0  0  0  0  0  0  0  0  0  0  0  0
   -7.5604    1.5308   -0.4462 O   0  0  0  0  0  0  0  0  0  0  0  0
   -6.7701   -0.9807   -0.6035 O   0  0  0  0  0  0  0  0  0  0  0  0
   -6.3368   -2.3251   -0.7814 C   0  0  0  0  0  0  0  0  0  0  0  0
   -2.3238    0.3157    1.2291 C   0  0  0  0  0  0  0  0  0  0  0  0
   -1.5045   -0.5614    0.6291 C   0  0  0  0  0  0  0  0  0  0  0  0
   -0.1281   -0.7640    1.1485 C   0  0  0  0  0  0  0  0  0  0  0  0
    0.2261   -0.3169    2.2354 O   0  0  0  0  0  0  0  0  0  0  0  0
    0.8383   -1.5679    0.3565 C   0  0  0  0  0  0  0  0  0  0  0  0
    0.8715   -1.7527   -0.9729 C   0  0  0  0  0  0  0  0  0  0  0  0
   -0.0673   -1.2193   -1.8244 O   0  0  0  0  0  0  0  0  0  0  0  0
    1.9052   -2.5126   -1.6431 C   0  0  0  0  0  0  0  0  0  0  0  0
    3.2328   -2.3031   -1.6542 C   0  0  0  0  0  0  0  0  0  0  0  0
    4.0267   -1.2530   -0.9904 C   0  0  0  0  0  0  0  0  0  0  0  0
    5.3377   -1.5710   -0.5897 C   0  0  0  0  0  0  0  0  0  0  0  0
    6.1590   -0.6090    0.0059 C   0  0  0  0  0  0  0  0  0  0  0  0
    5.6532    0.6775    0.2235 C   0  0  0  0  0  0  0  0  0  0  0  0
    6.4556    1.6210    0.8191 O   0  0  0  0  0  0  0  0  0  0  0  0
    4.3511    1.0064   -0.1494 C   0  0  0  0  0  0  0  0  0  0  0  0
    3.5600    0.0543   -0.7987 C   0  0  0  0  0  0  0  0  0  0  0  0
    3.9032    2.2821    0.0764 O   0  0  0  0  0  0  0  0  0  0  0  0
    2.6711    2.3051    0.7963 C   0  0  0  0  0  0  0  0  0  0  0  0
    7.4589   -0.7961    0.4062 O   0  0  0  0  0  0  0  0  0  0  0  0
    7.9824   -2.1138    0.2913 C   0  0  0  0  0  0  0  0  0  0  0  0
   -5.7704    5.4894    0.9394 H   0  0  0  0  0  0  0  0  0  0  0  0
   -4.2895    4.7072    0.3856 H   0  0  0  0  0  0  0  0  0  0  0  0
   -4.9375    4.3905    2.0414 H   0  0  0  0  0  0  0  0  0  0  0  0
   -3.4868    2.6905    1.2352 H   0  0  0  0  0  0  0  0  0  0  0  0
   -4.1916   -1.4277    0.2810 H   0  0  0  0  0  0  0  0  0  0  0  0
   -7.9370    0.6818   -0.7467 H   0  0  0  0  0  0  0  0  0  0  0  0
   -7.1695   -2.8899   -1.2129 H   0  0  0  0  0  0  0  0  0  0  0  0
   -6.0816   -2.7869    0.1779 H   0  0  0  0  0  0  0  0  0  0  0  0
   -5.4968   -2.3793   -1.4833 H   0  0  0  0  0  0  0  0  0  0  0  0
   -1.9744    0.8921    2.0844 H   0  0  0  0  0  0  0  0  0  0  0  0
   -1.8129   -1.1324   -0.2337 H   0  0  0  0  0  0  0  0  0  0  0  0
    1.6394   -1.9685    0.9731 H   0  0  0  0  0  0  0  0  0  0  0  0
    0.2671   -1.2872   -2.7378 H   0  0  0  0  0  0  0  0  0  0  0  0
    1.5271   -3.3603   -2.2144 H   0  0  0  0  0  0  0  0  0  0  0  0
    3.8345   -3.0155   -2.2211 H   0  0  0  0  0  0  0  0  0  0  0  0
    5.7011   -2.5787   -0.7597 H   0  0  0  0  0  0  0  0  0  0  0  0
    7.3398    1.2080    0.8663 H   0  0  0  0  0  0  0  0  0  0  0  0
    2.5837    0.3526   -1.1689 H   0  0  0  0  0  0  0  0  0  0  0  0
    2.6155    3.2572    1.3346 H   0  0  0  0  0  0  0  0  0  0  0  0
    2.6010    1.4964    1.5320 H   0  0  0  0  0  0  0  0  0  0  0  0
    1.8264    2.2584    0.0994 H   0  0  0  0  0  0  0  0  0  0  0  0
    8.0060   -2.4399   -0.7537 H   0  0  0  0  0  0  0  0  0  0  0  0
    9.0130   -2.0971    0.6526 H   0  0  0  0  0  0  0  0  0  0  0  0
    7.4185   -2.8168    0.9147 H   0  0  0  0  0  0  0  0  0  0  0  0
  1  2  1  0
  2  3  1  0
  3  4  2  0
  4  5  1  0
  5  6  2  0
  6  7  1  0
  7  8  2  0
  8  9  1  0
  7 10  1  0
 10 11  1  0
  5 12  1  0
 12 13  2  0
 13 14  1  0
 14 15  2  0
 14 16  1  0
 16 17  2  0
 17 18  1  0
 17 19  1  0
 19 20  2  0
 20 21  1  0
 21 22  2  0
 22 23  1  0
 23 24  2  0
 24 25  1  0
 24 26  1  0
 26 27  2  0
 26 28  1  0
 28 29  1  0
 23 30  1  0
 30 31  1  0
  8  3  1  0
 27 21  1  0
  1 32  1  0
  1 33  1  0
  1 34  1  0
  4 35  1  0
  6 36  1  0
  9 37  1  0
 11 38  1  0
 11 39  1  0
 11 40  1  0
 12 41  1  0
 13 42  1  0
 16 43  1  0
 18 44  1  0
 19 45  1  0
 20 46  1  0
 22 47  1  0
 25 48  1  0
 27 49  1  0
 29 50  1  0
 29 51  1  0
 29 52  1  0
 31 53  1  0
 31 54  1  0
 31 55  1  0
M  END
$$$$
