
     RDKit          3D

 18 18  0  0  0  0  0  0  0  0999 V2000
    0.7955    1.0998    0.3978 C   0  0  0  0  0  0  0  0  0  0  0  0
   -0.3408    1.8819    0.1468 C   0  0  0  0  0  0  0  0  0  0  0  0
   -1.5521    1.2789   -0.2102 C   0  0  0  0  0  0  0  0  0  0  0  0
   -1.5996   -0.1140   -0.3004 C   0  0  0  0  0  0  0  0  0  0  0  0
   -0.4744   -0.9104   -0.0545 C   0  0  0  0  0  0  0  0  0  0  0  0
    0.7349   -0.2965    0.2873 C   0  0  0  0  0  0  0  0  0  0  0  0
    1.9117   -1.1652    0.5510 C   0  0  0  0  0  0  0  0  0  0  0  0
    1.7752   -2.3509    0.8208 O   0  0  0  0  0  0  0  0  0  0  0  0
    3.1533   -0.6048    0.4466 N   0  0  0  0  0  0  0  0  0  0  0  0
   -2.8199   -0.7960   -0.6593 N   0  0  0  0  0  4  0  0  0  0  0  0
   -2.9634   -1.0899   -1.8527 O   0  0  0  0  0  0  0  0  0  0  0  0
   -3.6080   -1.0557    0.2582 O   0  0  0  0  0  1  0  0  0  0  0  0
   -3.1814    2.5381   -0.5787 I   0  0  0  0  0  0  0  0  0  0  0  0
    1.7120    1.5984    0.7038 H   0  0  0  0  0  0  0  0  0  0  0  0
   -0.2624    2.9639    0.2426 H   0  0  0  0  0  0  0  0  0  0  0  0
   -0.5354   -1.9956   -0.1288 H   0  0  0  0  0  0  0  0  0  0  0  0
    3.3223    0.2669   -0.0336 H   0  0  0  0  0  0  0  0  0  0  0  0
    3.9324   -1.2490    0.5156 H   0  0  0  0  0  0  0  0  0  0  0  0
  1  2  2  0
  2  3  1  0
  3  4  2  0
  4  5  1  0
  5  6  2  0
  6  7  1  0
  7  8  2  0
  7  9  1  0
  4 10  1  0
 10 11  2  0
 10 12  1  0
  3 13  1  0
  6  1  1  0
  1 14  1  0
  2 15  1  0
  5 16  1  0
  9 17  1  0
  9 18  1  0
M  CHG  2  10   1  12  -1
M  END
$$$$
