
     RDKit          3D

 61 63  0  0  0  0  0  0  0  0999 V2000
    4.6703   -2.5432   -2.4138 C   0  0  0  0  0  0  0  0  0  0  0  0
    3.3553   -3.3173   -2.4593 C   0  0  0  0  0  0  0  0  0  0  0  0
    2.3256   -2.8167   -1.4391 C   0  0  0  0  0  0  0  0  0  0  0  0
    2.6994   -3.1544    0.0044 C   0  0  0  0  0  0  0  0  0  0  0  0
    1.6554   -2.7279    0.9040 O   0  0  0  0  0  0  0  0  0  0  0  0
    1.7727   -1.4564    1.3719 C   0  0  0  0  0  0  0  0  0  0  0  0
    2.5896   -0.6339    0.9841 O   0  0  0  0  0  0  0  0  0  0  0  0
    0.8303   -1.2036    2.3541 N   0  0  0  0  0  0  0  0  0  0  0  0
    0.7156    0.2271    3.1764 S   0  0  0  0  0  6  0  0  0  0  0  0
    1.9847    0.4904    3.8232 O   0  0  0  0  0  0  0  0  0  0  0  0
   -0.5135    0.1488    3.9475 O   0  0  0  0  0  0  0  0  0  0  0  0
    0.4064    1.5253    1.9928 C   0  0  0  0  0  0  0  0  0  0  0  0
   -0.4629    1.6084    0.9113 C   0  0  0  0  0  0  0  0  0  0  0  0
   -0.3753    2.8709    0.2494 C   0  0  0  0  0  0  0  0  0  0  0  0
    0.5396    3.7184    0.8459 C   0  0  0  0  0  0  0  0  0  0  0  0
    1.2898    2.9794    2.1965 S   0  0  0  0  0  0  0  0  0  0  0  0
    0.9081    5.1148    0.4306 C   0  0  0  0  0  0  0  0  0  0  0  0
    0.0968    6.2068    1.1551 C   0  0  0  0  0  0  0  0  0  0  0  0
    0.6198    7.5885    0.7441 C   0  0  0  0  0  0  0  0  0  0  0  0
   -1.4084    6.1245    0.8605 C   0  0  0  0  0  0  0  0  0  0  0  0
   -1.3212    0.5012    0.5204 C   0  0  0  0  0  0  0  0  0  0  0  0
   -1.0584   -0.1962   -0.6651 C   0  0  0  0  0  0  0  0  0  0  0  0
   -1.8673   -1.2746   -1.0399 C   0  0  0  0  0  0  0  0  0  0  0  0
   -2.9450   -1.6790   -0.2319 C   0  0  0  0  0  0  0  0  0  0  0  0
   -3.2131   -0.9583    0.9457 C   0  0  0  0  0  0  0  0  0  0  0  0
   -2.4070    0.1235    1.3215 C   0  0  0  0  0  0  0  0  0  0  0  0
   -3.8421   -2.8340   -0.6297 C   0  0  0  0  0  0  0  0  0  0  0  0
   -3.0884   -4.0174   -1.0248 N   0  0  0  0  0  0  0  0  0  0  0  0
   -3.1068   -4.6139   -2.2594 C   0  0  0  0  0  0  0  0  0  0  0  0
   -2.2384   -5.6758   -2.1554 C   0  0  0  0  0  0  0  0  0  0  0  0
   -1.7004   -5.7375   -0.8909 N   0  0  0  0  0  0  0  0  0  0  0  0
   -2.2255   -4.7222   -0.2375 C   0  0  0  0  0  0  0  0  0  0  0  0
    5.3504   -2.9250   -3.1827 H   0  0  0  0  0  0  0  0  0  0  0  0
    4.5008   -1.4787   -2.6105 H   0  0  0  0  0  0  0  0  0  0  0  0
    5.1675   -2.6418   -1.4434 H   0  0  0  0  0  0  0  0  0  0  0  0
    2.9331   -3.2064   -3.4696 H   0  0  0  0  0  0  0  0  0  0  0  0
    3.5494   -4.3839   -2.3038 H   0  0  0  0  0  0  0  0  0  0  0  0
    2.1841   -1.7337   -1.5464 H   0  0  0  0  0  0  0  0  0  0  0  0
    1.3470   -3.2695   -1.6674 H   0  0  0  0  0  0  0  0  0  0  0  0
    3.6619   -2.7154    0.3038 H   0  0  0  0  0  0  0  0  0  0  0  0
    2.7916   -4.2368    0.1290 H   0  0  0  0  0  0  0  0  0  0  0  0
    0.1267   -1.9046    2.5601 H   0  0  0  0  0  0  0  0  0  0  0  0
   -0.9661    3.1510   -0.6186 H   0  0  0  0  0  0  0  0  0  0  0  0
    0.7764    5.2125   -0.6543 H   0  0  0  0  0  0  0  0  0  0  0  0
    1.9818    5.2715    0.6098 H   0  0  0  0  0  0  0  0  0  0  0  0
    0.2382    6.1049    2.2411 H   0  0  0  0  0  0  0  0  0  0  0  0
    1.6887    7.6891    0.9714 H   0  0  0  0  0  0  0  0  0  0  0  0
    0.4798    7.7597   -0.3309 H   0  0  0  0  0  0  0  0  0  0  0  0
    0.0854    8.3791    1.2861 H   0  0  0  0  0  0  0  0  0  0  0  0
   -1.5934    6.1682   -0.2165 H   0  0  0  0  0  0  0  0  0  0  0  0
   -1.9441    6.9552    1.3384 H   0  0  0  0  0  0  0  0  0  0  0  0
   -1.8409    5.1972    1.2481 H   0  0  0  0  0  0  0  0  0  0  0  0
   -0.2226    0.0880   -1.3083 H   0  0  0  0  0  0  0  0  0  0  0  0
   -1.6342   -1.8007   -1.9663 H   0  0  0  0  0  0  0  0  0  0  0  0
   -4.0541   -1.2298    1.5847 H   0  0  0  0  0  0  0  0  0  0  0  0
   -2.6366    0.6677    2.2396 H   0  0  0  0  0  0  0  0  0  0  0  0
   -4.4873   -3.1434    0.2038 H   0  0  0  0  0  0  0  0  0  0  0  0
   -4.4844   -2.5375   -1.4683 H   0  0  0  0  0  0  0  0  0  0  0  0
   -3.6964   -4.2445   -3.0945 H   0  0  0  0  0  0  0  0  0  0  0  0
   -1.9747   -6.4000   -2.9199 H   0  0  0  0  0  0  0  0  0  0  0  0
   -2.0138   -4.4580    0.7924 H   0  0  0  0  0  0  0  0  0  0  0  0
  1  2  1  0
  2  3  1  0
  3  4  1  0
  4  5  1  0
  5  6  1  0
  6  7  2  0
  6  8  1  0
  8  9  1  0
  9 10  2  0
  9 11  2  0
  9 12  1  0
 12 13  2  0
 13 14  1  0
 14 15  2  0
 15 16  1  0
 15 17  1  0
 17 18  1  0
 18 19  1  0
 18 20  1  0
 13 21  1  0
 21 22  2  0
 22 23  1  0
 23 24  2  0
 24 25  1  0
 25 26  2  0
 24 27  1  0
 27 28  1  0
 28 29  1  0
 29 30  2  0
 30 31  1  0
 31 32  2  0
 16 12  1  0
 26 21  1  0
 32 28  1  0
  1 33  1  0
  1 34  1  0
  1 35  1  0
  2 36  1  0
  2 37  1  0
  3 38  1  0
  3 39  1  0
  4 40  1  0
  4 41  1  0
  8 42  1  0
 14 43  1  0
 17 44  1  0
 17 45  1  0
 18 46  1  0
 19 47  1  0
 19 48  1  0
 19 49  1  0
 20 50  1  0
 20 51  1  0
 20 52  1  0
 22 53  1  0
 23 54  1  0
 25 55  1  0
 26 56  1  0
 27 57  1  0
 27 58  1  0
 29 59  1  0
 30 60  1  0
 32 61  1  0
M  END
$$$$
