
     RDKit          3D

 45 48  0  0  0  0  0  0  0  0999 V2000
    7.6838    2.3844    0.9596 C   0  0  0  0  0  0  0  0  0  0  0  0
    6.8900    1.2190    0.6925 N   0  0  0  0  0  0  0  0  0  0  0  0
    5.7945    1.1958   -0.1440 C   0  0  0  0  0  0  0  0  0  0  0  0
    5.4082    2.1406   -0.8250 O   0  0  0  0  0  0  0  0  0  0  0  0
    5.0685   -0.1205   -0.1197 C   0  0  0  0  0  0  0  0  0  0  0  0
    5.6533   -1.0983    0.6347 N   0  0  0  0  0  0  0  0  0  0  0  0
    4.9824   -2.2670    0.7186 C   0  0  0  0  0  0  0  0  0  0  0  0
    3.7629   -2.5029    0.1023 C   0  0  0  0  0  0  0  0  0  0  0  0
    3.1700   -1.4738   -0.6486 C   0  0  0  0  0  0  0  0  0  0  0  0
    3.8571   -0.2609   -0.7849 C   0  0  0  0  0  0  0  0  0  0  0  0
    1.7473   -1.6125   -1.1259 C   0  0  0  0  0  0  0  0  0  0  0  0
    1.0046   -1.5116    0.0824 O   0  0  0  0  0  0  0  0  0  0  0  0
   -0.3583   -1.5267   -0.0726 C   0  0  0  0  0  0  0  0  0  0  0  0
   -1.0352   -2.3257    0.7815 N   0  0  0  0  0  0  0  0  0  0  0  0
   -2.4209   -2.2466    0.9105 N   0  0  0  0  0  0  0  0  0  0  0  0
   -3.1869   -1.3532    0.2168 C   0  0  0  0  0  0  0  0  0  0  0  0
   -2.5144   -0.5485   -0.7270 C   0  0  0  0  0  0  0  0  0  0  0  0
   -1.1245   -0.6529   -0.8409 C   0  0  0  0  0  0  0  0  0  0  0  0
   -0.6623    0.2293   -1.7753 O   0  0  0  0  0  0  0  0  0  0  0  0
   -1.7372    0.8811   -2.2906 C   0  0  0  0  0  0  0  0  0  0  0  0
   -2.8899    0.4569   -1.6706 C   0  0  0  0  0  0  0  0  0  0  0  0
   -4.5657   -1.3287    0.4960 N   0  0  0  0  0  0  0  0  0  0  0  0
   -5.3705   -0.1762    0.6112 C   0  0  0  0  0  0  0  0  0  0  0  0
   -4.8865    1.0233    1.1582 C   0  0  0  0  0  0  0  0  0  0  0  0
   -5.7275    2.1348    1.2848 C   0  0  0  0  0  0  0  0  0  0  0  0
   -7.0599    2.0497    0.8905 C   0  0  0  0  0  0  0  0  0  0  0  0
   -7.5651    0.8471    0.3931 C   0  0  0  0  0  0  0  0  0  0  0  0
   -6.7243   -0.2642    0.2723 C   0  0  0  0  0  0  0  0  0  0  0  0
   -8.0776    3.4271    1.0258 Cl  0  0  0  0  0  0  0  0  0  0  0  0
    7.5642    3.1315    0.1718 H   0  0  0  0  0  0  0  0  0  0  0  0
    8.7293    2.0766    1.0300 H   0  0  0  0  0  0  0  0  0  0  0  0
    7.3646    2.8032    1.9150 H   0  0  0  0  0  0  0  0  0  0  0  0
    7.0217    0.3721    1.2437 H   0  0  0  0  0  0  0  0  0  0  0  0
    5.4603   -3.0294    1.3315 H   0  0  0  0  0  0  0  0  0  0  0  0
    3.2408   -3.4419    0.2720 H   0  0  0  0  0  0  0  0  0  0  0  0
    3.4225    0.5681   -1.3397 H   0  0  0  0  0  0  0  0  0  0  0  0
    1.5930   -2.5942   -1.5858 H   0  0  0  0  0  0  0  0  0  0  0  0
    1.5008   -0.8329   -1.8437 H   0  0  0  0  0  0  0  0  0  0  0  0
   -1.5089    1.5990   -3.0655 H   0  0  0  0  0  0  0  0  0  0  0  0
   -3.8878    0.8248   -1.8837 H   0  0  0  0  0  0  0  0  0  0  0  0
   -4.7013   -1.9325    1.3085 H   0  0  0  0  0  0  0  0  0  0  0  0
   -3.8500    1.1090    1.4980 H   0  0  0  0  0  0  0  0  0  0  0  0
   -5.3306    3.0597    1.7039 H   0  0  0  0  0  0  0  0  0  0  0  0
   -8.6082    0.7691    0.0992 H   0  0  0  0  0  0  0  0  0  0  0  0
   -7.1262   -1.2008   -0.1201 H   0  0  0  0  0  0  0  0  0  0  0  0
  1  2  1  0
  2  3  1  0
  3  4  2  0
  3  5  1  0
  5  6  2  0
  6  7  1  0
  7  8  2  0
  8  9  1  0
  9 10  2  0
  9 11  1  0
 11 12  1  0
 12 13  1  0
 13 14  2  0
 14 15  1  0
 15 16  2  0
 16 17  1  0
 17 18  2  0
 18 19  1  0
 19 20  1  0
 20 21  2  0
 16 22  1  0
 22 23  1  0
 23 24  2  0
 24 25  1  0
 25 26  2  0
 26 27  1  0
 27 28  2  0
 26 29  1  0
 10  5  1  0
 18 13  1  0
 21 17  1  0
 28 23  1  0
  1 30  1  0
  1 31  1  0
  1 32  1  0
  2 33  1  0
  7 34  1  0
  8 35  1  0
 10 36  1  0
 11 37  1  0
 11 38  1  0
 20 39  1  0
 21 40  1  0
 22 41  1  0
 24 42  1  0
 25 43  1  0
 27 44  1  0
 28 45  1  0
M  END
$$$$
