
     RDKit          3D

 49 52  0  0  0  0  0  0  0  0999 V2000
   -8.3514   -0.5472    0.0743 C   0  0  0  0  0  0  0  0  0  0  0  0
   -7.3829    0.4692   -0.1863 O   0  0  0  0  0  0  0  0  0  0  0  0
   -6.0697    0.1493   -0.0395 C   0  0  0  0  0  0  0  0  0  0  0  0
   -5.6146   -1.1829    0.0860 C   0  0  0  0  0  0  0  0  0  0  0  0
   -4.2684   -1.5026    0.1754 C   0  0  0  0  0  0  0  0  0  0  0  0
   -3.9304   -2.7916    0.3188 N   0  0  0  0  0  0  0  0  0  0  0  0
   -2.6199   -3.0991    0.3832 C   0  0  0  0  0  0  0  0  0  0  0  0
   -1.5920   -2.1733    0.2970 C   0  0  0  0  0  0  0  0  0  0  0  0
   -1.9593   -0.8311    0.1511 C   0  0  0  0  0  0  0  0  0  0  0  0
   -3.3237   -0.4649    0.1036 C   0  0  0  0  0  0  0  0  0  0  0  0
   -3.7654    0.8809   -0.0025 C   0  0  0  0  0  0  0  0  0  0  0  0
   -5.1287    1.2013   -0.0609 C   0  0  0  0  0  0  0  0  0  0  0  0
   -5.5535    2.6357   -0.0543 C   0  0  0  0  0  0  0  0  0  0  0  0
   -6.6944    3.0131    0.2205 O   0  0  0  0  0  0  0  0  0  0  0  0
   -4.6110    3.5812   -0.3828 N   0  0  0  0  0  0  0  0  0  0  0  0
   -1.0698    0.2125    0.0211 O   0  0  0  0  0  0  0  0  0  0  0  0
    0.2681   -0.0521    0.0713 C   0  0  0  0  0  0  0  0  0  0  0  0
    0.9072   -0.2144    1.3072 C   0  0  0  0  0  0  0  0  0  0  0  0
    2.2741   -0.4343    1.3383 C   0  0  0  0  0  0  0  0  0  0  0  0
    3.0250   -0.4222    0.1467 C   0  0  0  0  0  0  0  0  0  0  0  0
    2.3792   -0.2344   -1.0866 C   0  0  0  0  0  0  0  0  0  0  0  0
    0.9988   -0.0626   -1.1247 C   0  0  0  0  0  0  0  0  0  0  0  0
    4.4120   -0.6438    0.1942 N   0  0  0  0  0  0  0  0  0  0  0  0
    5.2757    0.3309   -0.3140 C   0  0  0  0  0  0  0  0  0  0  0  0
    4.9391    1.3922   -0.8335 O   0  0  0  0  0  0  0  0  0  0  0  0
    6.5757   -0.0439   -0.0606 N   0  0  0  0  0  0  0  0  0  0  0  0
    7.6753    0.8329   -0.2481 C   0  0  0  0  0  0  0  0  0  0  0  0
    8.9154    0.4165   -0.9933 C   0  0  0  0  0  0  0  0  0  0  0  0
    8.9550    0.5518    0.4961 C   0  0  0  0  0  0  0  0  0  0  0  0
    3.0409   -0.6662    2.8690 Cl  0  0  0  0  0  0  0  0  0  0  0  0
   -9.3316   -0.0735    0.1178 H   0  0  0  0  0  0  0  0  0  0  0  0
   -8.1736   -1.0231    1.0395 H   0  0  0  0  0  0  0  0  0  0  0  0
   -8.3636   -1.2721   -0.7450 H   0  0  0  0  0  0  0  0  0  0  0  0
   -6.3008   -2.0249    0.1198 H   0  0  0  0  0  0  0  0  0  0  0  0
   -2.3993   -4.1546    0.5050 H   0  0  0  0  0  0  0  0  0  0  0  0
   -0.5736   -2.5048    0.3340 H   0  0  0  0  0  0  0  0  0  0  0  0
   -3.0202    1.6677    0.0083 H   0  0  0  0  0  0  0  0  0  0  0  0
   -4.0060    3.3602   -1.1674 H   0  0  0  0  0  0  0  0  0  0  0  0
   -5.0342    4.5070   -0.4353 H   0  0  0  0  0  0  0  0  0  0  0  0
    0.3225   -0.1718    2.2285 H   0  0  0  0  0  0  0  0  0  0  0  0
    2.9504   -0.2283   -2.0206 H   0  0  0  0  0  0  0  0  0  0  0  0
    0.4863    0.0697   -2.0802 H   0  0  0  0  0  0  0  0  0  0  0  0
    4.7396   -0.9280    1.1175 H   0  0  0  0  0  0  0  0  0  0  0  0
    6.7478   -1.0360   -0.0786 H   0  0  0  0  0  0  0  0  0  0  0  0
    7.3901    1.8703   -0.3458 H   0  0  0  0  0  0  0  0  0  0  0  0
    9.4191    1.1735   -1.5868 H   0  0  0  0  0  0  0  0  0  0  0  0
    8.9504   -0.5797   -1.4217 H   0  0  0  0  0  0  0  0  0  0  0  0
    9.0228   -0.3566    1.0903 H   0  0  0  0  0  0  0  0  0  0  0  0
    9.4675    1.4042    0.9337 H   0  0  0  0  0  0  0  0  0  0  0  0
  1  2  1  0
  2  3  1  0
  3  4  2  0
  4  5  1  0
  5  6  2  0
  6  7  1  0
  7  8  2  0
  8  9  1  0
  9 10  2  0
 10 11  1  0
 11 12  2  0
 12 13  1  0
 13 14  2  0
 13 15  1  0
  9 16  1  0
 16 17  1  0
 17 18  2  0
 18 19  1  0
 19 20  2  0
 20 21  1  0
 21 22  2  0
 20 23  1  0
 23 24  1  0
 24 25  2  0
 24 26  1  0
 26 27  1  0
 27 28  1  0
 28 29  1  0
 19 30  1  0
 12  3  1  0
 10  5  1  0
 22 17  1  0
 29 27  1  0
  1 31  1  0
  1 32  1  0
  1 33  1  0
  4 34  1  0
  7 35  1  0
  8 36  1  0
 11 37  1  0
 15 38  1  0
 15 39  1  0
 18 40  1  0
 21 41  1  0
 22 42  1  0
 23 43  1  0
 26 44  1  0
 27 45  1  0
 28 46  1  0
 28 47  1  0
 29 48  1  0
 29 49  1  0
M  END
$$$$
