
     RDKit          3D

 40 41  0  0  0  0  0  0  0  0999 V2000
    3.0333    3.2798    0.0069 C   0  0  0  0  0  0  0  0  0  0  0  0
    2.5013    2.2866    0.8468 C   0  0  0  0  0  0  0  0  0  0  0  0
    2.8444    0.9296    0.6744 C   0  0  0  0  0  0  0  0  0  0  0  0
    3.7710    0.6129   -0.3216 C   0  0  0  0  0  0  0  0  0  0  0  0
    4.3310    1.5973   -1.1483 C   0  0  0  0  0  0  0  0  0  0  0  0
    3.9552    2.9298   -0.9824 C   0  0  0  0  0  0  0  0  0  0  0  0
    4.7575    4.4003   -2.2071 I   0  0  0  0  0  0  0  0  0  0  0  0
    4.1535   -0.6528   -0.5411 F   0  0  0  0  0  0  0  0  0  0  0  0
    2.2804   -0.0135    1.5794 N   0  0  0  0  0  0  0  0  0  0  0  0
    1.9796   -1.3697    1.2608 C   0  0  0  0  0  0  0  0  0  0  0  0
    0.7140   -1.7350    0.7270 C   0  0  0  0  0  0  0  0  0  0  0  0
    0.4577   -3.0701    0.3766 C   0  0  0  0  0  0  0  0  0  0  0  0
    1.4441   -4.0422    0.5482 C   0  0  0  0  0  0  0  0  0  0  0  0
    2.6789   -3.6985    1.0799 C   0  0  0  0  0  0  0  0  0  0  0  0
    2.9503   -2.3662    1.4209 C   0  0  0  0  0  0  0  0  0  0  0  0
    4.1564   -2.0780    1.9486 F   0  0  0  0  0  0  0  0  0  0  0  0
    3.6042   -4.6555    1.2771 F   0  0  0  0  0  0  0  0  0  0  0  0
   -0.3606   -0.7096    0.6285 C   0  0  0  0  0  0  0  0  0  0  0  0
   -0.3561    0.2501    1.3976 O   0  0  0  0  0  0  0  0  0  0  0  0
   -1.3300   -0.9433   -0.3393 N   0  0  0  0  0  0  0  0  0  0  0  0
   -2.1414    0.1874   -0.6021 O   0  0  0  0  0  0  0  0  0  0  0  0
   -3.3470    0.0662    0.1697 C   0  0  0  0  0  0  0  0  0  0  0  0
   -4.3225    1.1601   -0.2854 C   0  0  1  0  0  0  0  0  0  0  0  0
   -5.6559    1.0863    0.4581 C   0  0  0  0  0  0  0  0  0  0  0  0
   -6.3013   -0.1681    0.3137 O   0  0  0  0  0  0  0  0  0  0  0  0
   -3.7631    2.4754   -0.1110 O   0  0  0  0  0  0  0  0  0  0  0  0
    2.7050    4.3170    0.1405 H   0  0  0  0  0  0  0  0  0  0  0  0
    1.7759    2.5792    1.6049 H   0  0  0  0  0  0  0  0  0  0  0  0
    5.0623    1.3017   -1.9066 H   0  0  0  0  0  0  0  0  0  0  0  0
    1.4215    0.4063    1.9763 H   0  0  0  0  0  0  0  0  0  0  0  0
   -0.5200   -3.3909   -0.0004 H   0  0  0  0  0  0  0  0  0  0  0  0
    1.2453   -5.0891    0.2926 H   0  0  0  0  0  0  0  0  0  0  0  0
   -1.0775   -1.4653   -1.1757 H   0  0  0  0  0  0  0  0  0  0  0  0
   -3.0942    0.1877    1.2414 H   0  0  0  0  0  0  0  0  0  0  0  0
   -3.7744   -0.9306    0.0170 H   0  0  0  0  0  0  0  0  0  0  0  0
   -4.4870    1.0365   -1.3599 H   0  0  0  0  0  0  0  0  0  0  0  0
   -5.5281    1.2941    1.5316 H   0  0  0  0  0  0  0  0  0  0  0  0
   -6.3304    1.8696    0.0959 H   0  0  0  0  0  0  0  0  0  0  0  0
   -6.5910   -0.2351   -0.6207 H   0  0  0  0  0  0  0  0  0  0  0  0
   -2.8421    2.3597    0.2383 H   0  0  0  0  0  0  0  0  0  0  0  0
  1  2  2  0
  2  3  1  0
  3  4  2  0
  4  5  1  0
  5  6  2  0
  6  7  1  0
  4  8  1  0
  3  9  1  0
  9 10  1  0
 10 11  2  0
 11 12  1  0
 12 13  2  0
 13 14  1  0
 14 15  2  0
 15 16  1  0
 14 17  1  0
 11 18  1  0
 18 19  2  0
 18 20  1  0
 20 21  1  0
 21 22  1  0
 22 23  1  0
 23 24  1  0
 24 25  1  0
 23 26  1  0
  6  1  1  0
 15 10  1  0
  1 27  1  0
  2 28  1  0
  5 29  1  0
  9 30  1  0
 12 31  1  0
 13 32  1  0
 20 33  1  0
 22 34  1  0
 22 35  1  0
 23 36  1  6
 24 37  1  0
 24 38  1  0
 25 39  1  0
 26 40  1  0
M  END
$$$$
