
     RDKit          3D

 73 81  0  0  0  0  0  0  0  0999 V2000
    0.0692   -1.9621   -2.7046 C   0  0  0  0  0  0  0  0  0  0  0  0
   -0.1532   -1.0056   -1.5029 C   0  0  1  0  0  0  0  0  0  0  0  0
    1.1330   -1.0167   -0.5890 C   0  0  1  0  0  0  0  0  0  0  0  0
    1.8987    0.3199   -0.7483 C   0  0  1  0  0  0  0  0  0  0  0  0
    0.9458    1.4718   -0.4712 C   0  0  0  0  0  0  0  0  0  0  0  0
   -0.1424    1.4754   -1.5391 C   0  0  1  0  0  0  0  0  0  0  0  0
   -0.3206    0.2403   -2.2287 O   0  0  0  0  0  0  0  0  0  0  0  0
   -1.4283    1.9375   -1.0558 N   0  0  0  0  0  0  0  0  0  0  0  0
   -1.8691    3.2526   -1.0261 C   0  0  0  0  0  0  0  0  0  0  0  0
   -1.2473    4.4473   -1.4359 C   0  0  0  0  0  0  0  0  0  0  0  0
   -1.9556    5.6454   -1.3045 C   0  0  0  0  0  0  0  0  0  0  0  0
   -3.2416    5.6570   -0.7759 C   0  0  0  0  0  0  0  0  0  0  0  0
   -3.8492    4.4689   -0.3651 C   0  0  0  0  0  0  0  0  0  0  0  0
   -3.1691    3.2372   -0.4853 C   0  0  0  0  0  0  0  0  0  0  0  0
   -3.4915    1.8752   -0.1799 C   0  0  0  0  0  0  0  0  0  0  0  0
   -4.5540    1.1289    0.3571 C   0  0  0  0  0  0  0  0  0  0  0  0
   -4.5489   -0.2943    0.5214 C   0  0  0  0  0  0  0  0  0  0  0  0
   -3.4560   -1.0906    0.1371 C   0  0  0  0  0  0  0  0  0  0  0  0
   -3.1174   -2.4743    0.1714 C   0  0  0  0  0  0  0  0  0  0  0  0
   -3.7986   -3.6235    0.6377 C   0  0  0  0  0  0  0  0  0  0  0  0
   -3.1815   -4.8751    0.5751 C   0  0  0  0  0  0  0  0  0  0  0  0
   -1.9024   -4.9965    0.0584 C   0  0  0  0  0  0  0  0  0  0  0  0
   -1.2108   -3.8779   -0.4195 C   0  0  0  0  0  0  0  0  0  0  0  0
   -1.8322   -2.6125   -0.3746 C   0  0  0  0  0  0  0  0  0  0  0  0
   -1.4103   -1.3399   -0.7904 N   0  0  0  0  0  0  0  0  0  0  0  0
   -2.3768   -0.4364   -0.4154 C   0  0  0  0  0  0  0  0  0  0  0  0
   -2.3959    1.1284   -0.5617 C   0  0  0  0  0  0  0  0  0  0  0  0
   -5.8509   -0.7165    1.1342 C   0  0  0  0  0  0  0  0  0  0  0  0
   -6.5592    0.5233    1.2922 N   0  0  0  0  0  0  0  0  0  0  0  0
   -5.8443    1.6152    0.8520 C   0  0  0  0  0  0  0  0  0  0  0  0
   -6.2509    2.7624    0.8889 O   0  0  0  0  0  0  0  0  0  0  0  0
    3.1614    0.3609    0.0324 N   0  0  0  0  0  0  0  0  0  0  0  0
    3.1271    0.8274    1.4183 C   0  0  0  0  0  0  0  0  0  0  0  0
    4.2916   -0.2187   -0.5522 C   0  0  0  0  0  0  0  0  0  0  0  0
    4.2684   -0.7333   -1.6815 O   0  0  0  0  0  0  0  0  0  0  0  0
    5.5924   -0.1841    0.1518 C   0  0  0  0  0  0  0  0  0  0  0  0
    6.1435    1.0273    0.5842 C   0  0  0  0  0  0  0  0  0  0  0  0
    7.3720    1.0268    1.2467 C   0  0  0  0  0  0  0  0  0  0  0  0
    8.0563   -0.1763    1.4571 C   0  0  0  0  0  0  0  0  0  0  0  0
    7.5153   -1.3783    0.9914 C   0  0  0  0  0  0  0  0  0  0  0  0
    6.2854   -1.3875    0.3317 C   0  0  0  0  0  0  0  0  0  0  0  0
    0.7800   -1.1703    0.8059 O   0  0  0  0  0  0  0  0  0  0  0  0
    1.4743   -2.2337    1.4456 C   0  0  0  0  0  0  0  0  0  0  0  0
    0.4422   -2.9444   -2.4130 H   0  0  0  0  0  0  0  0  0  0  0  0
    0.7990   -1.5367   -3.4109 H   0  0  0  0  0  0  0  0  0  0  0  0
   -0.8645   -2.1046   -3.2706 H   0  0  0  0  0  0  0  0  0  0  0  0
    1.7895   -1.8471   -0.8824 H   0  0  0  0  0  0  0  0  0  0  0  0
    2.2019    0.4017   -1.8023 H   0  0  0  0  0  0  0  0  0  0  0  0
    1.4775    2.4310   -0.4773 H   0  0  0  0  0  0  0  0  0  0  0  0
    0.5108    1.3993    0.5339 H   0  0  0  0  0  0  0  0  0  0  0  0
    0.1555    2.1754   -2.3279 H   0  0  0  0  0  0  0  0  0  0  0  0
   -0.2475    4.4629   -1.8593 H   0  0  0  0  0  0  0  0  0  0  0  0
   -1.5029    6.5808   -1.6212 H   0  0  0  0  0  0  0  0  0  0  0  0
   -3.7831    6.5962   -0.6824 H   0  0  0  0  0  0  0  0  0  0  0  0
   -4.8556    4.4921    0.0424 H   0  0  0  0  0  0  0  0  0  0  0  0
   -4.8015   -3.5402    1.0514 H   0  0  0  0  0  0  0  0  0  0  0  0
   -3.7066   -5.7492    0.9493 H   0  0  0  0  0  0  0  0  0  0  0  0
   -1.4287   -5.9745    0.0246 H   0  0  0  0  0  0  0  0  0  0  0  0
   -0.2076   -4.0184   -0.8010 H   0  0  0  0  0  0  0  0  0  0  0  0
   -5.7176   -1.1735    2.1172 H   0  0  0  0  0  0  0  0  0  0  0  0
   -6.4230   -1.3671    0.4701 H   0  0  0  0  0  0  0  0  0  0  0  0
   -7.4888    0.6312    1.6678 H   0  0  0  0  0  0  0  0  0  0  0  0
    3.3622    1.8976    1.4312 H   0  0  0  0  0  0  0  0  0  0  0  0
    3.8548    0.2888    2.0338 H   0  0  0  0  0  0  0  0  0  0  0  0
    2.1438    0.6706    1.8598 H   0  0  0  0  0  0  0  0  0  0  0  0
    5.6330    1.9712    0.3967 H   0  0  0  0  0  0  0  0  0  0  0  0
    7.8009    1.9656    1.5905 H   0  0  0  0  0  0  0  0  0  0  0  0
    9.0162   -0.1744    1.9703 H   0  0  0  0  0  0  0  0  0  0  0  0
    8.0576   -2.3123    1.1363 H   0  0  0  0  0  0  0  0  0  0  0  0
    5.8790   -2.3240   -0.0456 H   0  0  0  0  0  0  0  0  0  0  0  0
    1.2502   -3.1855    0.9591 H   0  0  0  0  0  0  0  0  0  0  0  0
    2.5518   -2.0542    1.4243 H   0  0  0  0  0  0  0  0  0  0  0  0
    1.1452   -2.2833    2.4882 H   0  0  0  0  0  0  0  0  0  0  0  0
  2  1  1  6
  2  3  1  0
  3  4  1  0
  4  5  1  0
  5  6  1  0
  6  7  1  0
  6  8  1  0
  8  9  1  0
  9 10  2  0
 10 11  1  0
 11 12  2  0
 12 13  1  0
 13 14  2  0
 14 15  1  0
 15 16  2  0
 16 17  1  0
 17 18  2  0
 18 19  1  0
 19 20  2  0
 20 21  1  0
 21 22  2  0
 22 23  1  0
 23 24  2  0
 24 25  1  0
 25 26  1  0
 26 27  2  0
 17 28  1  0
 28 29  1  0
 29 30  1  0
 30 31  2  0
  4 32  1  0
 32 33  1  0
 32 34  1  0
 34 35  2  0
 34 36  1  0
 36 37  2  0
 37 38  1  0
 38 39  2  0
 39 40  1  0
 40 41  2  0
  3 42  1  0
 42 43  1  0
  7  2  1  0
 25  2  1  0
 27  8  1  0
 14  9  1  0
 27 15  1  0
 30 16  1  0
 26 18  1  0
 24 19  1  0
 41 36  1  0
  1 44  1  0
  1 45  1  0
  1 46  1  0
  3 47  1  6
  4 48  1  6
  5 49  1  0
  5 50  1  0
  6 51  1  6
 10 52  1  0
 11 53  1  0
 12 54  1  0
 13 55  1  0
 20 56  1  0
 21 57  1  0
 22 58  1  0
 23 59  1  0
 28 60  1  0
 28 61  1  0
 29 62  1  0
 33 63  1  0
 33 64  1  0
 33 65  1  0
 37 66  1  0
 38 67  1  0
 39 68  1  0
 40 69  1  0
 41 70  1  0
 43 71  1  0
 43 72  1  0
 43 73  1  0
M  END
$$$$
