
     RDKit          3D

 39 42  0  0  0  0  0  0  0  0999 V2000
    4.8610    0.5754    0.1652 C   0  0  0  0  0  0  0  0  0  0  0  0
    3.4973    0.8584    0.4917 O   0  0  0  0  0  0  0  0  0  0  0  0
    2.5493    0.0224   -0.0383 C   0  0  0  0  0  0  0  0  0  0  0  0
    1.2355    0.2788    0.3314 C   0  0  0  0  0  0  0  0  0  0  0  0
    0.1560   -0.5071   -0.0945 C   0  0  0  0  0  0  0  0  0  0  0  0
    0.3499   -1.6085   -0.9261 C   0  0  0  0  0  0  0  0  0  0  0  0
   -0.7470   -2.5155   -1.4254 C   0  0  0  0  0  0  0  0  0  0  0  0
   -2.0820   -2.4334   -0.7907 N   0  0  0  0  0  0  0  0  0  0  0  0
   -2.0052   -2.4207    0.6717 C   0  0  0  0  0  0  0  0  0  0  0  0
   -1.9554   -0.9932    1.2338 C   0  0  0  0  0  0  0  0  0  0  0  0
   -1.1236    0.0654    0.4574 C   0  0  2  0  0  0  0  0  0  0  0  0
   -1.9513    0.7097   -0.6645 C   0  0  0  0  0  0  0  0  0  0  0  0
   -2.0998    2.0327   -0.8336 C   0  0  0  0  0  0  0  0  0  0  0  0
   -1.5448    3.0584    0.0966 C   0  0  1  0  0  0  0  0  0  0  0  0
   -1.2284    2.4865    1.4799 C   0  0  0  0  0  0  0  0  0  0  0  0
   -0.5096    1.1283    1.4424 C   0  0  2  0  0  0  0  0  0  0  0  0
    0.9003    1.3408    1.1404 O   0  0  0  0  0  0  0  0  0  0  0  0
   -0.3651    3.6017   -0.5019 O   0  0  0  0  0  0  0  0  0  0  0  0
    1.6812   -1.8502   -1.3402 C   0  0  0  0  0  0  0  0  0  0  0  0
    2.7617   -1.0479   -0.9051 C   0  0  0  0  0  0  0  0  0  0  0  0
    5.0623    0.7077   -0.9071 H   0  0  0  0  0  0  0  0  0  0  0  0
    5.1581   -0.4260    0.5118 H   0  0  0  0  0  0  0  0  0  0  0  0
    5.4689    1.3001    0.7149 H   0  0  0  0  0  0  0  0  0  0  0  0
   -0.8910   -2.3091   -2.4972 H   0  0  0  0  0  0  0  0  0  0  0  0
   -0.3959   -3.5587   -1.3551 H   0  0  0  0  0  0  0  0  0  0  0  0
   -2.6000   -3.2594   -1.0844 H   0  0  0  0  0  0  0  0  0  0  0  0
   -2.9164   -2.8986    1.0590 H   0  0  0  0  0  0  0  0  0  0  0  0
   -1.1672   -3.0329    1.0533 H   0  0  0  0  0  0  0  0  0  0  0  0
   -2.9828   -0.6168    1.3504 H   0  0  0  0  0  0  0  0  0  0  0  0
   -1.5769   -1.1033    2.2554 H   0  0  0  0  0  0  0  0  0  0  0  0
   -2.3823    0.0341   -1.4083 H   0  0  0  0  0  0  0  0  0  0  0  0
   -2.6512    2.3927   -1.6970 H   0  0  0  0  0  0  0  0  0  0  0  0
   -2.2633    3.8820    0.2175 H   0  0  0  0  0  0  0  0  0  0  0  0
   -2.1742    2.3587    2.0234 H   0  0  0  0  0  0  0  0  0  0  0  0
   -0.6221    3.2010    2.0369 H   0  0  0  0  0  0  0  0  0  0  0  0
   -0.5118    0.7430    2.4739 H   0  0  0  0  0  0  0  0  0  0  0  0
   -0.5741    3.7827   -1.4406 H   0  0  0  0  0  0  0  0  0  0  0  0
    1.8885   -2.6787   -2.0197 H   0  0  0  0  0  0  0  0  0  0  0  0
    3.7513   -1.3005   -1.2773 H   0  0  0  0  0  0  0  0  0  0  0  0
  1  2  1  0
  2  3  1  0
  3  4  2  0
  4  5  1  0
  5  6  2  0
  6  7  1  0
  7  8  1  0
  8  9  1  0
  9 10  1  0
 11 10  1  1
 11 12  1  0
 12 13  2  0
 13 14  1  0
 14 15  1  0
 15 16  1  0
 16 17  1  0
 14 18  1  0
  6 19  1  0
 19 20  2  0
 20  3  1  0
 17  4  1  0
 11  5  1  0
 16 11  1  0
  1 21  1  0
  1 22  1  0
  1 23  1  0
  7 24  1  0
  7 25  1  0
  8 26  1  0
  9 27  1  0
  9 28  1  0
 10 29  1  0
 10 30  1  0
 12 31  1  0
 13 32  1  0
 14 33  1  1
 15 34  1  0
 15 35  1  0
 16 36  1  1
 18 37  1  0
 19 38  1  0
 20 39  1  0
M  END
$$$$
