
     RDKit          3D

 35 36  0  0  0  0  0  0  0  0999 V2000
   -2.3803   -2.2268    1.2733 C   0  0  0  0  0  0  0  0  0  0  0  0
   -1.9802   -0.7685    1.4784 C   0  0  0  0  0  0  0  0  0  0  0  0
   -0.4508   -0.6005    1.3898 C   0  0  0  0  0  0  0  0  0  0  0  0
    0.3513   -1.1557    2.1505 O   0  0  0  0  0  0  0  0  0  0  0  0
   -0.1556    0.2085    0.3177 N   0  0  0  0  0  0  0  0  0  0  0  0
   -1.2879    0.6005   -0.3288 C   0  0  0  0  0  0  0  0  0  0  0  0
   -1.3773    1.2792   -1.3450 O   0  0  0  0  0  0  0  0  0  0  0  0
   -2.3820    0.0895    0.3706 N   0  0  0  0  0  0  0  0  0  0  0  0
   -3.7502    0.2607   -0.1029 C   0  0  0  0  0  0  0  0  0  0  0  0
   -4.1239   -0.6973   -1.1700 C   0  0  0  0  0  0  0  0  0  0  0  0
   -4.4188   -1.4556   -1.9928 N   0  0  0  0  0  0  0  0  0  0  0  0
    1.1419    0.5678   -0.0407 C   0  0  0  0  0  0  0  0  0  0  0  0
    1.7299    0.0420   -1.1926 C   0  0  0  0  0  0  0  0  0  0  0  0
    3.0579    0.3755   -1.5300 C   0  0  0  0  0  0  0  0  0  0  0  0
    3.7603    1.3092   -0.7401 C   0  0  0  0  0  0  0  0  0  0  0  0
    3.1499    1.8489    0.4019 C   0  0  0  0  0  0  0  0  0  0  0  0
    1.8579    1.4553    0.7714 C   0  0  0  0  0  0  0  0  0  0  0  0
    5.0921    1.7180   -1.0543 C   0  0  0  0  0  0  0  0  0  0  0  0
    6.1742    2.0464   -1.3048 N   0  0  0  0  0  0  0  0  0  0  0  0
    3.7242   -0.2854   -2.7171 C   0  0  0  0  0  0  0  0  0  0  0  0
    2.9348   -1.2048   -3.3402 F   0  0  0  0  0  0  0  0  0  0  0  0
    4.8603   -0.9526   -2.3736 F   0  0  0  0  0  0  0  0  0  0  0  0
    4.0693    0.6007   -3.6872 F   0  0  0  0  0  0  0  0  0  0  0  0
   -2.4447   -0.2177    2.8355 C   0  0  0  0  0  0  0  0  0  0  0  0
   -2.0779   -2.6027    0.2861 H   0  0  0  0  0  0  0  0  0  0  0  0
   -1.9038   -2.8877    2.0248 H   0  0  0  0  0  0  0  0  0  0  0  0
   -3.4702   -2.3519    1.3659 H   0  0  0  0  0  0  0  0  0  0  0  0
   -4.4329    0.1747    0.7513 H   0  0  0  0  0  0  0  0  0  0  0  0
   -3.8540    1.2762   -0.5020 H   0  0  0  0  0  0  0  0  0  0  0  0
    1.1722   -0.6750   -1.7992 H   0  0  0  0  0  0  0  0  0  0  0  0
    3.6750    2.5850    1.0202 H   0  0  0  0  0  0  0  0  0  0  0  0
    1.4076    1.8691    1.6806 H   0  0  0  0  0  0  0  0  0  0  0  0
   -2.0707    0.8079    2.9823 H   0  0  0  0  0  0  0  0  0  0  0  0
   -2.0556   -0.8320    3.6592 H   0  0  0  0  0  0  0  0  0  0  0  0
   -3.5420   -0.2007    2.9048 H   0  0  0  0  0  0  0  0  0  0  0  0
  1  2  1  0
  2  3  1  0
  3  4  2  0
  3  5  1  0
  5  6  1  0
  6  7  2  0
  6  8  1  0
  8  9  1  0
  9 10  1  0
 10 11  3  0
  5 12  1  0
 12 13  2  0
 13 14  1  0
 14 15  2  0
 15 16  1  0
 16 17  2  0
 15 18  1  0
 18 19  3  0
 14 20  1  0
 20 21  1  0
 20 22  1  0
 20 23  1  0
  2 24  1  0
  8  2  1  0
 17 12  1  0
  1 25  1  0
  1 26  1  0
  1 27  1  0
  9 28  1  0
  9 29  1  0
 13 30  1  0
 16 31  1  0
 17 32  1  0
 24 33  1  0
 24 34  1  0
 24 35  1  0
M  END
$$$$
