
     RDKit          3D

 57 60  0  0  0  0  0  0  0  0999 V2000
    3.8845    1.4950    2.1382 C   0  0  0  0  0  0  0  0  0  0  0  0
    2.9918    1.4125    0.9032 C   0  0  2  0  0  0  0  0  0  0  0  0
    1.5302    1.8385    1.1978 C   0  0  0  0  0  0  0  0  0  0  0  0
    0.6798    0.6355    0.7918 C   0  0  1  0  0  0  0  0  0  0  0  0
   -0.8114    0.8491    0.4868 C   0  0  2  0  0  0  0  0  0  0  0  0
   -1.5076    1.5544    1.6633 C   0  0  0  0  0  0  0  0  0  0  0  0
   -3.0113    1.6800    1.4589 C   0  0  1  0  0  0  0  0  0  0  0  0
   -3.6246    0.3320    1.1755 C   0  0  0  0  0  0  0  0  0  0  0  0
   -4.5820   -0.1708    1.9754 C   0  0  0  0  0  0  0  0  0  0  0  0
   -5.1607   -1.5164    1.7688 C   0  0  0  0  0  0  0  0  0  0  0  0
   -6.0419   -1.9246    2.5162 O   0  0  0  0  0  0  0  0  0  0  0  0
   -4.6168   -2.3022    0.6323 C   0  0  0  0  0  0  0  0  0  0  0  0
   -3.6666   -1.8014   -0.1688 C   0  0  0  0  0  0  0  0  0  0  0  0
   -3.0351   -0.4199   -0.0291 C   0  0  2  0  0  0  0  0  0  0  0  0
   -1.4711   -0.5421    0.1983 C   0  0  1  0  0  0  0  0  0  0  0  0
   -0.6888   -1.3489   -0.8857 C   0  0  2  0  0  0  0  0  0  0  0  0
    0.8369   -1.3961   -0.6335 C   0  0  0  0  0  0  0  0  0  0  0  0
    1.4633   -0.0084   -0.3763 C   0  0  2  0  0  0  0  0  0  0  0  0
    2.9048   -0.0042    0.2366 C   0  0  1  0  0  0  0  0  0  0  0  0
    4.0258   -0.2097   -0.8060 C   0  0  0  0  0  0  0  0  0  0  0  0
    4.5621    0.7265   -1.4088 O   0  0  0  0  0  0  0  0  0  0  0  0
    4.4593   -1.6433   -1.0943 C   0  0  0  0  0  0  0  0  0  0  0  0
    5.1711   -1.7283   -2.3231 O   0  0  0  0  0  0  0  0  0  0  0  0
    3.0349   -1.0407    1.2132 O   0  0  0  0  0  0  0  0  0  0  0  0
    1.4298    0.8451   -1.6737 C   0  0  0  0  0  0  0  0  0  0  0  0
   -0.9403   -0.8618   -2.1984 O   0  0  0  0  0  0  0  0  0  0  0  0
   -1.3129   -1.2744    1.3659 F   0  0  0  0  0  0  0  0  0  0  0  0
   -3.4255    0.3564   -1.3082 C   0  0  0  0  0  0  0  0  0  0  0  0
   -5.2603   -3.8763    0.3563 Cl  0  0  0  0  0  0  0  0  0  0  0  0
   -3.5355    2.2379    2.5871 F   0  0  0  0  0  0  0  0  0  0  0  0
    3.4833    0.9219    2.9796 H   0  0  0  0  0  0  0  0  0  0  0  0
    4.8903    1.1249    1.9155 H   0  0  0  0  0  0  0  0  0  0  0  0
    3.9760    2.5352    2.4693 H   0  0  0  0  0  0  0  0  0  0  0  0
    3.3905    2.1413    0.1857 H   0  0  0  0  0  0  0  0  0  0  0  0
    1.2705    2.7205    0.6005 H   0  0  0  0  0  0  0  0  0  0  0  0
    1.3754    2.0988    2.2503 H   0  0  0  0  0  0  0  0  0  0  0  0
    0.7105   -0.0492    1.6535 H   0  0  0  0  0  0  0  0  0  0  0  0
   -0.9158    1.4969   -0.3891 H   0  0  0  0  0  0  0  0  0  0  0  0
   -1.0917    2.5589    1.8070 H   0  0  0  0  0  0  0  0  0  0  0  0
   -1.3132    1.0165    2.6009 H   0  0  0  0  0  0  0  0  0  0  0  0
   -3.2297    2.3727    0.6398 H   0  0  0  0  0  0  0  0  0  0  0  0
   -4.9716    0.3724    2.8308 H   0  0  0  0  0  0  0  0  0  0  0  0
   -3.3274   -2.4111   -1.0040 H   0  0  0  0  0  0  0  0  0  0  0  0
   -1.0364   -2.3883   -0.8643 H   0  0  0  0  0  0  0  0  0  0  0  0
    1.3329   -1.8678   -1.4898 H   0  0  0  0  0  0  0  0  0  0  0  0
    1.0077   -2.0493    0.2310 H   0  0  0  0  0  0  0  0  0  0  0  0
    3.5894   -2.2974   -1.1687 H   0  0  0  0  0  0  0  0  0  0  0  0
    5.1129   -1.9867   -0.2879 H   0  0  0  0  0  0  0  0  0  0  0  0
    5.6586   -0.8845   -2.4102 H   0  0  0  0  0  0  0  0  0  0  0  0
    2.6292   -0.7581    2.0506 H   0  0  0  0  0  0  0  0  0  0  0  0
    1.9108    0.3086   -2.4996 H   0  0  0  0  0  0  0  0  0  0  0  0
    0.4188    1.0921   -2.0021 H   0  0  0  0  0  0  0  0  0  0  0  0
    1.9492    1.8019   -1.5645 H   0  0  0  0  0  0  0  0  0  0  0  0
   -0.4755   -1.4425   -2.8289 H   0  0  0  0  0  0  0  0  0  0  0  0
   -3.2706   -0.2328   -2.2184 H   0  0  0  0  0  0  0  0  0  0  0  0
   -2.8651    1.2888   -1.4239 H   0  0  0  0  0  0  0  0  0  0  0  0
   -4.4909    0.6228   -1.2983 H   0  0  0  0  0  0  0  0  0  0  0  0
  1  2  1  0
  2  3  1  0
  3  4  1  0
  4  5  1  0
  5  6  1  0
  6  7  1  0
  7  8  1  0
  8  9  2  0
  9 10  1  0
 10 11  2  0
 10 12  1  0
 12 13  2  0
 13 14  1  0
 14 15  1  0
 15 16  1  0
 16 17  1  0
 17 18  1  0
 18 19  1  0
 19 20  1  0
 20 21  2  0
 20 22  1  0
 22 23  1  0
 19 24  1  1
 18 25  1  6
 16 26  1  0
 15 27  1  1
 14 28  1  6
 12 29  1  0
  7 30  1  0
 19  2  1  0
 18  4  1  0
 15  5  1  0
 14  8  1  0
  1 31  1  0
  1 32  1  0
  1 33  1  0
  2 34  1  6
  3 35  1  0
  3 36  1  0
  4 37  1  1
  5 38  1  6
  6 39  1  0
  6 40  1  0
  7 41  1  6
  9 42  1  0
 13 43  1  0
 16 44  1  6
 17 45  1  0
 17 46  1  0
 22 47  1  0
 22 48  1  0
 23 49  1  0
 24 50  1  0
 25 51  1  0
 25 52  1  0
 25 53  1  0
 26 54  1  0
 28 55  1  0
 28 56  1  0
 28 57  1  0
M  END
$$$$
