
     RDKit          3D

 50 49  0  0  0  0  0  0  0  0999 V2000
    7.6211    0.9657    1.9087 C   0  0  0  0  0  0  0  0  0  0  0  0
    6.1200    0.7155    1.9351 C   0  0  0  0  0  0  0  0  0  0  0  0
    5.5312    0.6841    0.5241 C   0  0  0  0  0  0  0  0  0  0  0  0
    4.0256    0.4135    0.5630 C   0  0  0  0  0  0  0  0  0  0  0  0
    3.4540    0.2238   -0.8448 C   0  0  0  0  0  0  0  0  0  0  0  0
    1.9298    0.0567   -0.8638 C   0  0  0  0  0  0  0  0  0  0  0  0
    1.4405   -1.1503   -0.0611 C   0  0  0  0  0  0  0  0  0  0  0  0
   -0.0382   -1.4945   -0.2693 C   0  0  0  0  0  0  0  0  0  0  0  0
   -1.0274   -0.6808    0.5744 C   0  0  0  0  0  0  0  0  0  0  0  0
   -1.2747    0.7700    0.1530 C   0  0  0  0  0  0  0  0  0  0  0  0
   -1.7026    0.9734   -1.3053 C   0  0  0  0  0  0  0  0  0  0  0  0
   -2.9719    0.2204   -1.7237 C   0  0  0  0  0  0  0  0  0  0  0  0
   -4.2145    0.6673   -0.9484 C   0  0  0  0  0  0  0  0  0  0  0  0
   -5.4568   -0.1173   -1.3806 C   0  0  0  0  0  0  0  0  0  0  0  0
   -6.7066    0.3063   -0.6073 C   0  0  0  0  0  0  0  0  0  0  0  0
   -6.6818   -0.1357    0.8331 C   0  0  0  0  0  0  0  0  0  0  0  0
   -5.9240   -0.9365    1.3566 O   0  0  0  0  0  0  0  0  0  0  0  0
   -7.6502    0.4576    1.5585 O   0  0  0  0  0  0  0  0  0  0  0  0
    8.1371    0.2031    1.3144 H   0  0  0  0  0  0  0  0  0  0  0  0
    7.8476    1.9490    1.4817 H   0  0  0  0  0  0  0  0  0  0  0  0
    8.0281    0.9340    2.9252 H   0  0  0  0  0  0  0  0  0  0  0  0
    5.6351    1.4985    2.5280 H   0  0  0  0  0  0  0  0  0  0  0  0
    5.9295   -0.2402    2.4378 H   0  0  0  0  0  0  0  0  0  0  0  0
    6.0317   -0.0950   -0.0629 H   0  0  0  0  0  0  0  0  0  0  0  0
    5.7200    1.6404    0.0212 H   0  0  0  0  0  0  0  0  0  0  0  0
    3.5153    1.2462    1.0620 H   0  0  0  0  0  0  0  0  0  0  0  0
    3.8425   -0.4869    1.1603 H   0  0  0  0  0  0  0  0  0  0  0  0
    3.9192   -0.6500   -1.3168 H   0  0  0  0  0  0  0  0  0  0  0  0
    3.7118    1.0931   -1.4633 H   0  0  0  0  0  0  0  0  0  0  0  0
    1.6082   -0.0443   -1.9070 H   0  0  0  0  0  0  0  0  0  0  0  0
    1.4811    0.9772   -0.4822 H   0  0  0  0  0  0  0  0  0  0  0  0
    2.0303   -2.0237   -0.3668 H   0  0  0  0  0  0  0  0  0  0  0  0
    1.6293   -1.0036    1.0075 H   0  0  0  0  0  0  0  0  0  0  0  0
   -0.1637   -2.5422    0.0346 H   0  0  0  0  0  0  0  0  0  0  0  0
   -0.2993   -1.4648   -1.3330 H   0  0  0  0  0  0  0  0  0  0  0  0
   -0.6973   -0.6857    1.6197 H   0  0  0  0  0  0  0  0  0  0  0  0
   -1.9890   -1.2075    0.5682 H   0  0  0  0  0  0  0  0  0  0  0  0
   -2.0375    1.1960    0.8165 H   0  0  0  0  0  0  0  0  0  0  0  0
   -0.3809    1.3693    0.3458 H   0  0  0  0  0  0  0  0  0  0  0  0
   -0.8863    0.6762   -1.9722 H   0  0  0  0  0  0  0  0  0  0  0  0
   -1.8534    2.0472   -1.4788 H   0  0  0  0  0  0  0  0  0  0  0  0
   -2.8250   -0.8590   -1.6035 H   0  0  0  0  0  0  0  0  0  0  0  0
   -3.1376    0.3913   -2.7945 H   0  0  0  0  0  0  0  0  0  0  0  0
   -4.0519    0.5256    0.1241 H   0  0  0  0  0  0  0  0  0  0  0  0
   -4.3809    1.7387   -1.1110 H   0  0  0  0  0  0  0  0  0  0  0  0
   -5.6306    0.0541   -2.4500 H   0  0  0  0  0  0  0  0  0  0  0  0
   -5.2806   -1.1915   -1.2517 H   0  0  0  0  0  0  0  0  0  0  0  0
   -6.8135    1.3970   -0.6443 H   0  0  0  0  0  0  0  0  0  0  0  0
   -7.5890   -0.1487   -1.0703 H   0  0  0  0  0  0  0  0  0  0  0  0
   -7.5237    0.0919    2.4590 H   0  0  0  0  0  0  0  0  0  0  0  0
  1  2  1  0
  2  3  1  0
  3  4  1  0
  4  5  1  0
  5  6  1  0
  6  7  1  0
  7  8  1  0
  8  9  1  0
  9 10  1  0
 10 11  1  0
 11 12  1  0
 12 13  1  0
 13 14  1  0
 14 15  1  0
 15 16  1  0
 16 17  2  0
 16 18  1  0
  1 19  1  0
  1 20  1  0
  1 21  1  0
  2 22  1  0
  2 23  1  0
  3 24  1  0
  3 25  1  0
  4 26  1  0
  4 27  1  0
  5 28  1  0
  5 29  1  0
  6 30  1  0
  6 31  1  0
  7 32  1  0
  7 33  1  0
  8 34  1  0
  8 35  1  0
  9 36  1  0
  9 37  1  0
 10 38  1  0
 10 39  1  0
 11 40  1  0
 11 41  1  0
 12 42  1  0
 12 43  1  0
 13 44  1  0
 13 45  1  0
 14 46  1  0
 14 47  1  0
 15 48  1  0
 15 49  1  0
 18 50  1  0
M  END
$$$$
