
     RDKit          3D

 35 35  0  0  0  0  0  0  0  0999 V2000
   -4.7538    1.3449    0.1609 C   0  0  0  0  0  0  0  0  0  0  0  0
   -4.3488   -0.1239    0.1831 C   0  0  2  0  0  0  0  0  0  0  0  0
   -2.8697   -0.1663    0.2764 C   0  0  0  0  0  0  0  0  0  0  0  0
   -2.2681   -0.5295    1.4700 C   0  0  0  0  0  0  0  0  0  0  0  0
   -0.8813   -0.5673    1.5507 C   0  0  0  0  0  0  0  0  0  0  0  0
   -0.0859   -0.2484    0.4592 C   0  0  0  0  0  0  0  0  0  0  0  0
   -0.6935    0.1056   -0.7035 C   0  0  0  0  0  0  0  0  0  0  0  0
   -2.0735    0.1488   -0.8027 C   0  0  0  0  0  0  0  0  0  0  0  0
    1.3430   -0.2983    0.5791 C   0  0  0  0  0  0  0  0  0  0  0  0
    1.8603   -0.6313    1.6752 O   0  0  0  0  0  0  0  0  0  0  0  0
    2.1883    0.0188   -0.5092 N   0  0  0  0  0  0  0  0  0  0  0  0
    3.5895   -0.0434   -0.3472 C   0  0  0  0  0  0  0  0  0  0  0  0
    4.3059   -1.1843   -0.5947 C   0  0  0  0  0  0  0  0  0  0  0  0
    5.6784   -1.2051   -0.4240 C   0  0  0  0  0  0  0  0  0  0  0  0
    6.2891   -0.0685   -0.0067 N   0  0  0  0  0  0  0  0  0  0  0  0
    5.6375    1.0694    0.2482 C   0  0  0  0  0  0  0  0  0  0  0  0
    4.2731    1.0794    0.0753 C   0  0  0  0  0  0  0  0  0  0  0  0
   -4.7294   -0.7647   -1.0538 N   0  0  0  0  0  0  0  0  0  0  0  0
    0.6848    0.0000    0.0000 Cl  0  0  0  0  0  0  0  0  0  0  0  0
   -5.8487    1.4525    0.3061 H   0  0  0  0  0  0  0  0  0  0  0  0
   -4.2061    1.8628    0.9928 H   0  0  0  0  0  0  0  0  0  0  0  0
   -4.3972    1.7598   -0.7986 H   0  0  0  0  0  0  0  0  0  0  0  0
   -4.7809   -0.5913    1.0659 H   0  0  0  0  0  0  0  0  0  0  0  0
   -2.9002   -0.7766    2.3160 H   0  0  0  0  0  0  0  0  0  0  0  0
   -0.4052   -0.8490    2.4761 H   0  0  0  0  0  0  0  0  0  0  0  0
   -0.1592    0.3677   -1.5968 H   0  0  0  0  0  0  0  0  0  0  0  0
   -2.5504    0.4351   -1.7432 H   0  0  0  0  0  0  0  0  0  0  0  0
    1.8160    0.3065   -1.4587 H   0  0  0  0  0  0  0  0  0  0  0  0
    3.7820   -2.0748   -0.9275 H   0  0  0  0  0  0  0  0  0  0  0  0
    6.2639   -2.0842   -0.6103 H   0  0  0  0  0  0  0  0  0  0  0  0
    6.1365    1.9517    0.5753 H   0  0  0  0  0  0  0  0  0  0  0  0
    3.7523    1.9967    0.2814 H   0  0  0  0  0  0  0  0  0  0  0  0
   -4.1726   -1.6172   -1.2597 H   0  0  0  0  0  0  0  0  0  0  0  0
   -4.7910   -0.1050   -1.8551 H   0  0  0  0  0  0  0  0  0  0  0  0
   -0.6848    0.0000    0.0000 H   0  0  0  0  0  0  0  0  0  0  0  0
  1  2  1  0
  2  3  1  0
  3  4  2  0
  4  5  1  0
  5  6  2  0
  6  7  1  0
  7  8  2  0
  6  9  1  0
  9 10  2  0
  9 11  1  0
 11 12  1  0
 12 13  2  0
 13 14  1  0
 14 15  2  0
 15 16  1  0
 16 17  2  0
  2 18  1  0
  8  3  1  0
 17 12  1  0
  1 20  1  0
  1 21  1  0
  1 22  1  0
  2 23  1  1
  4 24  1  0
  5 25  1  0
  7 26  1  0
  8 27  1  0
 11 28  1  0
 13 29  1  0
 14 30  1  0
 16 31  1  0
 17 32  1  0
 18 33  1  0
 18 34  1  0
 19 35  1  0
M  END
$$$$
