
     RDKit          3D

 69 73  0  0  0  0  0  0  0  0999 V2000
   -6.8528    0.7921    0.2179 C   0  0  0  0  0  0  0  0  0  0  0  0
   -5.3661    0.8070    0.4043 C   0  0  0  0  0  0  0  0  0  0  0  0
   -4.7894    1.4752    1.2476 O   0  0  0  0  0  0  0  0  0  0  0  0
   -4.7846   -0.0362   -0.4860 O   0  0  0  0  0  0  0  0  0  0  0  0
   -3.3522   -0.2151   -0.5215 C   0  0  0  0  0  0  0  0  0  0  0  0
   -2.6136    1.0964   -0.9590 C   0  0  0  0  0  0  0  0  0  0  0  0
   -2.5122    1.3713   -2.4520 C   0  0  0  0  0  0  0  0  0  0  0  0
   -1.2758    0.9251   -0.2547 C   0  0  0  0  0  0  0  0  0  0  0  0
   -0.3643    2.0848    0.0477 C   0  0  0  0  0  0  0  0  0  0  0  0
    0.4366    1.6123    1.3028 C   0  0  0  0  0  0  0  0  0  0  0  0
    1.9008    1.1804    1.0213 C   0  0  0  0  0  0  0  0  0  0  0  0
    2.7421    2.3295    0.4322 C   0  0  0  0  0  0  0  0  0  0  0  0
    3.9986    1.8949   -0.2552 C   0  0  0  0  0  0  0  0  0  0  0  0
    4.3511    0.6168   -0.4759 C   0  0  0  0  0  0  0  0  0  0  0  0
    5.5703    0.2801   -1.3021 C   0  0  0  0  0  0  0  0  0  0  0  0
    5.0985   -0.4108   -2.5706 C   0  0  0  0  0  0  0  0  0  0  0  0
    5.7438   -0.3476   -3.6176 O   0  0  0  0  0  0  0  0  0  0  0  0
    3.8020   -1.1940   -2.4923 C   0  0  0  0  0  0  0  0  0  0  0  0
    3.5991   -1.7145   -1.0701 C   0  0  0  0  0  0  0  0  0  0  0  0
    3.5036   -0.5716   -0.0077 C   0  0  0  0  0  0  0  0  0  0  0  0
    4.1191   -1.0832    1.3187 C   0  0  0  0  0  0  0  0  0  0  0  0
    2.0020   -0.1217    0.1812 C   0  0  0  0  0  0  0  0  0  0  0  0
    1.0836   -1.2457    0.7388 C   0  0  0  0  0  0  0  0  0  0  0  0
    0.3912   -0.8662    2.0467 C   0  0  0  0  0  0  0  0  0  0  0  0
   -0.5317   -2.2644    2.6855 Cl  0  0  0  0  0  0  0  0  0  0  0  0
   -0.4246    0.4548    1.9813 C   0  0  0  0  0  0  0  0  0  0  0  0
   -0.7765    0.8742    3.4303 C   0  0  0  0  0  0  0  0  0  0  0  0
   -1.7177    0.4985    1.1350 C   0  0  0  0  0  0  0  0  0  0  0  0
   -2.7040   -0.6299    0.8474 C   0  0  0  0  0  0  0  0  0  0  0  0
   -3.1109   -1.4104   -1.4814 C   0  0  0  0  0  0  0  0  0  0  0  0
   -4.2052   -2.4455   -1.5963 C   0  0  0  0  0  0  0  0  0  0  0  0
   -2.0465   -1.5813   -2.0813 O   0  0  0  0  0  0  0  0  0  0  0  0
   -7.2525   -0.1813    0.5138 H   0  0  0  0  0  0  0  0  0  0  0  0
   -7.3041    1.5670    0.8448 H   0  0  0  0  0  0  0  0  0  0  0  0
   -7.1000    1.0092   -0.8252 H   0  0  0  0  0  0  0  0  0  0  0  0
   -3.1343    1.9656   -0.5376 H   0  0  0  0  0  0  0  0  0  0  0  0
   -2.1257    2.3824   -2.6211 H   0  0  0  0  0  0  0  0  0  0  0  0
   -3.4960    1.3052   -2.9272 H   0  0  0  0  0  0  0  0  0  0  0  0
   -1.8323    0.6861   -2.9637 H   0  0  0  0  0  0  0  0  0  0  0  0
   -0.7026    0.1484   -0.7663 H   0  0  0  0  0  0  0  0  0  0  0  0
   -0.9473    2.9777    0.3046 H   0  0  0  0  0  0  0  0  0  0  0  0
    0.2507    2.3344   -0.8186 H   0  0  0  0  0  0  0  0  0  0  0  0
    0.4929    2.4761    1.9802 H   0  0  0  0  0  0  0  0  0  0  0  0
    2.3437    0.9768    2.0060 H   0  0  0  0  0  0  0  0  0  0  0  0
    2.1724    2.9138   -0.2962 H   0  0  0  0  0  0  0  0  0  0  0  0
    3.0030    3.0253    1.2395 H   0  0  0  0  0  0  0  0  0  0  0  0
    4.6234    2.7019   -0.6358 H   0  0  0  0  0  0  0  0  0  0  0  0
    6.2442   -0.3881   -0.7580 H   0  0  0  0  0  0  0  0  0  0  0  0
    6.1288    1.1788   -1.5854 H   0  0  0  0  0  0  0  0  0  0  0  0
    2.9769   -0.5458   -2.8034 H   0  0  0  0  0  0  0  0  0  0  0  0
    3.8641   -2.0386   -3.1864 H   0  0  0  0  0  0  0  0  0  0  0  0
    4.4442   -2.3743   -0.8287 H   0  0  0  0  0  0  0  0  0  0  0  0
    2.7111   -2.3543   -1.0513 H   0  0  0  0  0  0  0  0  0  0  0  0
    3.6027   -1.9677    1.7017 H   0  0  0  0  0  0  0  0  0  0  0  0
    4.1012   -0.3212    2.1044 H   0  0  0  0  0  0  0  0  0  0  0  0
    5.1695   -1.3696    1.1856 H   0  0  0  0  0  0  0  0  0  0  0  0
    1.6240    0.1157   -0.8244 H   0  0  0  0  0  0  0  0  0  0  0  0
    0.3391   -1.5133   -0.0194 H   0  0  0  0  0  0  0  0  0  0  0  0
    1.6446   -2.1728    0.8949 H   0  0  0  0  0  0  0  0  0  0  0  0
    1.1826   -0.7414    2.7960 H   0  0  0  0  0  0  0  0  0  0  0  0
   -1.4839    0.1767    3.8912 H   0  0  0  0  0  0  0  0  0  0  0  0
    0.1201    0.9171    4.0582 H   0  0  0  0  0  0  0  0  0  0  0  0
   -1.2369    1.8689    3.4605 H   0  0  0  0  0  0  0  0  0  0  0  0
   -2.3241    1.3164    1.5568 H   0  0  0  0  0  0  0  0  0  0  0  0
   -2.1827   -1.5823    0.7310 H   0  0  0  0  0  0  0  0  0  0  0  0
   -3.4343   -0.7468    1.6530 H   0  0  0  0  0  0  0  0  0  0  0  0
   -3.8417   -3.2986   -2.1767 H   0  0  0  0  0  0  0  0  0  0  0  0
   -5.0693   -2.0193   -2.1108 H   0  0  0  0  0  0  0  0  0  0  0  0
   -4.4861   -2.7996   -0.6014 H   0  0  0  0  0  0  0  0  0  0  0  0
  1  2  1  0
  2  3  2  0
  2  4  1  0
  4  5  1  0
  5  6  1  0
  6  7  1  0
  6  8  1  0
  8  9  1  0
  9 10  1  0
 10 11  1  0
 11 12  1  0
 12 13  1  0
 13 14  2  0
 14 15  1  0
 15 16  1  0
 16 17  2  0
 16 18  1  0
 18 19  1  0
 19 20  1  0
 20 21  1  0
 20 22  1  0
 22 23  1  0
 23 24  1  0
 24 25  1  0
 24 26  1  0
 26 27  1  0
 26 28  1  0
 28 29  1  0
  5 30  1  0
 30 31  1  0
 30 32  2  0
 29  5  1  0
 28  8  1  0
 26 10  1  0
 22 11  1  0
 20 14  1  0
  1 33  1  0
  1 34  1  0
  1 35  1  0
  6 36  1  0
  7 37  1  0
  7 38  1  0
  7 39  1  0
  8 40  1  0
  9 41  1  0
  9 42  1  0
 10 43  1  0
 11 44  1  0
 12 45  1  0
 12 46  1  0
 13 47  1  0
 15 48  1  0
 15 49  1  0
 18 50  1  0
 18 51  1  0
 19 52  1  0
 19 53  1  0
 21 54  1  0
 21 55  1  0
 21 56  1  0
 22 57  1  0
 23 58  1  0
 23 59  1  0
 24 60  1  0
 27 61  1  0
 27 62  1  0
 27 63  1  0
 28 64  1  0
 29 65  1  0
 29 66  1  0
 31 67  1  0
 31 68  1  0
 31 69  1  0
M  END
$$$$
