
     RDKit          3D

 29 27  0  0  0  0  0  0  0  0999 V2000
   -1.5015    0.7160    0.1611 C   0  0  0  0  0  0  0  0  0  0  0  0
   -1.4541   -0.7578    0.2225 C   0  0  0  0  0  0  0  0  0  0  0  0
   -0.2897   -1.3408   -0.5338 C   0  0  0  0  0  0  0  0  0  0  0  0
    0.9552   -0.6612    0.0507 C   0  0  2  0  0  0  0  0  0  0  0  0
    0.9215    0.7320   -0.4794 C   0  0  1  0  0  0  0  0  0  0  0  0
   -0.2148    1.4345    0.2619 C   0  0  0  0  0  0  0  0  0  0  0  0
    2.1380    1.4498   -0.3882 N   0  0  0  0  0  2  0  0  0  0  0  0
    2.1468   -1.3852   -0.2028 N   0  0  0  0  0  2  0  0  0  0  0  0
    0.7166   -0.1865   -0.1793 C   0  0  0  0  0  0  0  0  0  0  0  0
    1.0543   -0.4589   -1.3553 O   0  0  0  0  0  0  0  0  0  0  0  0
   -0.6960   -0.0645    0.2093 C   0  0  0  0  0  0  0  0  0  0  0  0
   -1.0383    0.2083    1.3865 O   0  0  0  0  0  0  0  0  0  0  0  0
   -1.7302   -0.2436   -0.7009 O   0  0  0  0  0  0  0  0  0  0  0  0
    1.6665    0.0131    0.8134 O   0  0  0  0  0  0  0  0  0  0  0  0
    0.0000    0.0000    0.0000 Pt  0  0  0  0  0 15  0  0  0  0  0  0
   -2.1623    1.0756    1.0039 H   0  0  0  0  0  0  0  0  0  0  0  0
   -2.0457    1.0500   -0.7643 H   0  0  0  0  0  0  0  0  0  0  0  0
   -2.3819   -1.1628   -0.2742 H   0  0  0  0  0  0  0  0  0  0  0  0
   -1.4569   -1.1689    1.2384 H   0  0  0  0  0  0  0  0  0  0  0  0
   -0.2357   -2.4193   -0.4672 H   0  0  0  0  0  0  0  0  0  0  0  0
   -0.3538   -1.0179   -1.5905 H   0  0  0  0  0  0  0  0  0  0  0  0
    0.7745   -0.6009    1.1583 H   0  0  0  0  0  0  0  0  0  0  0  0
    0.6100    0.7165   -1.5598 H   0  0  0  0  0  0  0  0  0  0  0  0
    0.0788    1.5835    1.3007 H   0  0  0  0  0  0  0  0  0  0  0  0
   -0.3267    2.4314   -0.2356 H   0  0  0  0  0  0  0  0  0  0  0  0
    2.5645    1.4561    0.5466 H   0  0  0  0  0  0  0  0  0  0  0  0
    2.2336   -2.1308    0.5518 H   0  0  0  0  0  0  0  0  0  0  0  0
   -2.5601    0.3685   -0.7040 H   0  0  0  0  0  0  0  0  0  0  0  0
    2.5872    0.3636    0.5302 H   0  0  0  0  0  0  0  0  0  0  0  0
  1  2  1  0
  2  3  1  0
  3  4  1  0
  4  5  1  0
  5  6  1  0
  5  7  1  0
  4  8  1  0
  9 10  2  0
  9 11  1  0
 11 12  2  0
 11 13  1  0
  9 14  1  0
  6  1  1  0
  1 16  1  0
  1 17  1  0
  2 18  1  0
  2 19  1  0
  3 20  1  0
  3 21  1  0
  4 22  1  1
  5 23  1  6
  6 24  1  0
  6 25  1  0
  7 26  1  0
  8 27  1  0
 13 28  1  0
 14 29  1  0
M  CHG  3   7  -1   8  -1  15   2
M  END
$$$$
