
     RDKit          3D

131130  0  0  0  0  0  0  0  0999 V2000
   15.4914    4.0952   -2.6051 C   0  0  0  0  0  0  0  0  0  0  0  0
   15.4225    4.0677   -1.0818 C   0  0  0  0  0  0  0  0  0  0  0  0
   14.7542    2.8084   -0.5124 C   0  0  0  0  0  0  0  0  0  0  0  0
   13.2720    2.6584   -0.9028 C   0  0  0  0  0  0  0  0  0  0  0  0
   12.6214    1.3752   -0.3734 C   0  0  0  0  0  0  0  0  0  0  0  0
   12.4860    1.3387    1.1539 C   0  0  0  0  0  0  0  0  0  0  0  0
   11.8019    0.0650    1.6766 C   0  0  0  0  0  0  0  0  0  0  0  0
   10.3836   -0.2057    1.1521 C   0  0  0  0  0  0  0  0  0  0  0  0
    9.3821    0.9162    1.4619 C   0  0  0  0  0  0  0  0  0  0  0  0
    7.9538    0.6270    0.9681 C   0  0  0  0  0  0  0  0  0  0  0  0
    7.2868   -0.5740    1.6605 C   0  0  0  0  0  0  0  0  0  0  0  0
    5.8454   -0.8036    1.1720 C   0  0  0  0  0  0  0  0  0  0  0  0
    5.2412   -2.0563    1.8171 C   0  0  0  0  0  0  0  0  0  0  0  0
    3.9358   -2.5162    1.1569 C   0  0  0  0  0  0  0  0  0  0  0  0
    2.7704   -1.5439    1.3549 C   0  0  0  0  0  0  0  0  0  0  0  0
    1.4393   -2.1551    0.9301 C   0  0  0  0  0  0  0  0  0  0  0  0
    1.3190   -3.2568    0.4089 O   0  0  0  0  0  0  0  0  0  0  0  0
    0.3674   -1.3394    1.2259 N   0  0  0  0  0  0  0  0  0  0  0  0
   -0.9882   -1.6818    0.8215 C   0  0  1  0  0  0  0  0  0  0  0  0
   -1.9737   -1.5400    1.9794 C   0  0  0  0  0  0  0  0  0  0  0  0
   -1.5682   -2.2815    3.2534 C   0  0  0  0  0  0  0  0  0  0  0  0
   -1.4068   -3.7980    3.0662 C   0  0  0  0  0  0  0  0  0  0  0  0
   -0.9793   -4.4801    4.3735 C   0  0  0  0  0  0  0  0  0  0  0  0
   -0.7900   -5.9149    4.1871 N   0  0  0  0  0  0  0  0  0  0  0  0
   -1.3667   -0.7333   -0.3514 C   0  0  0  0  0  0  0  0  0  0  0  0
   -0.7061    0.2805   -0.5888 O   0  0  0  0  0  0  0  0  0  0  0  0
   -2.4832   -1.0999   -1.0947 N   0  0  0  0  0  0  0  0  0  0  0  0
   -2.6156   -0.5628   -2.4589 C   0  0  1  0  0  0  0  0  0  0  0  0
   -1.8191   -1.4375   -3.4839 C   0  0  1  0  0  0  0  0  0  0  0  0
   -2.3059   -2.8816   -3.5625 C   0  0  0  0  0  0  0  0  0  0  0  0
   -1.7969   -0.8811   -4.7902 O   0  0  0  0  0  0  0  0  0  0  0  0
   -4.0526   -0.3230   -2.9728 C   0  0  0  0  0  0  0  0  0  0  0  0
   -4.2479    0.1425   -4.1052 O   0  0  0  0  0  0  0  0  0  0  0  0
   -5.0969   -0.6252   -2.1215 N   0  0  0  0  0  0  0  0  0  0  0  0
   -6.4600   -0.7253   -2.6794 C   0  0  1  0  0  0  0  0  0  0  0  0
   -6.9577   -2.1937   -2.6575 C   0  0  1  0  0  0  0  0  0  0  0  0
   -8.2499   -2.4256   -3.4476 C   0  0  0  0  0  0  0  0  0  0  0  0
   -5.9328   -3.0505   -3.1926 O   0  0  0  0  0  0  0  0  0  0  0  0
   -7.4730    0.1641   -1.9232 C   0  0  0  0  0  0  0  0  0  0  0  0
   -8.5974    0.4000   -2.3635 O   0  0  0  0  0  0  0  0  0  0  0  0
   -7.0708    0.5416   -0.6579 N   0  0  0  0  0  0  0  0  0  0  0  0
   -7.9873    1.1605    0.3056 C   0  0  1  0  0  0  0  0  0  0  0  0
   -8.5513    2.5148   -0.1684 C   0  0  0  0  0  0  0  0  0  0  0  0
   -7.4933    3.5693   -0.5290 C   0  0  0  0  0  0  0  0  0  0  0  0
   -6.8099    4.1719    0.7091 C   0  0  0  0  0  0  0  0  0  0  0  0
   -5.8233    5.2906    0.3669 C   0  0  0  0  0  0  0  0  0  0  0  0
   -6.4827    6.4504   -0.2233 N   0  0  0  0  0  0  0  0  0  0  0  0
   -9.0635    0.0992    0.7236 C   0  0  0  0  0  0  0  0  0  0  0  0
   -8.9333   -1.1060    0.5042 O   0  0  0  0  0  0  0  0  0  0  0  0
  -10.1187    0.5717    1.4648 N   0  0  0  0  0  0  0  0  0  0  0  0
  -11.3150   -0.2523    1.6911 C   0  0  1  0  0  0  0  0  0  0  0  0
  -12.0296    0.1839    2.9659 C   0  0  0  0  0  0  0  0  0  0  0  0
  -12.1687    1.6107    3.0392 O   0  0  0  0  0  0  0  0  0  0  0  0
  -12.2909   -0.1344    0.5140 C   0  0  0  0  0  0  0  0  0  0  0  0
  -13.2766   -0.8330    0.3117 O   0  0  0  0  0  0  0  0  0  0  0  0
  -12.0537    0.9435   -0.2824 O   0  0  0  0  0  0  0  0  0  0  0  0
   15.9465    3.1819   -3.0021 H   0  0  0  0  0  0  0  0  0  0  0  0
   14.4979    4.2115   -3.0460 H   0  0  0  0  0  0  0  0  0  0  0  0
   16.1029    4.9423   -2.9336 H   0  0  0  0  0  0  0  0  0  0  0  0
   14.9108    4.9647   -0.7169 H   0  0  0  0  0  0  0  0  0  0  0  0
   16.4464    4.1140   -0.6889 H   0  0  0  0  0  0  0  0  0  0  0  0
   15.3156    1.9201   -0.8417 H   0  0  0  0  0  0  0  0  0  0  0  0
   14.8405    2.8426    0.5810 H   0  0  0  0  0  0  0  0  0  0  0  0
   12.7107    3.5335   -0.5526 H   0  0  0  0  0  0  0  0  0  0  0  0
   13.1811    2.6448   -1.9968 H   0  0  0  0  0  0  0  0  0  0  0  0
   13.1887    0.5024   -0.7174 H   0  0  0  0  0  0  0  0  0  0  0  0
   11.6252    1.2994   -0.8217 H   0  0  0  0  0  0  0  0  0  0  0  0
   11.9374    2.2226    1.5001 H   0  0  0  0  0  0  0  0  0  0  0  0
   13.4794    1.3864    1.6181 H   0  0  0  0  0  0  0  0  0  0  0  0
   11.7697    0.1156    2.7694 H   0  0  0  0  0  0  0  0  0  0  0  0
   12.4336   -0.7933    1.4246 H   0  0  0  0  0  0  0  0  0  0  0  0
   10.4143   -0.3841    0.0736 H   0  0  0  0  0  0  0  0  0  0  0  0
   10.0492   -1.1394    1.6098 H   0  0  0  0  0  0  0  0  0  0  0  0
    9.7171    1.8409    0.9779 H   0  0  0  0  0  0  0  0  0  0  0  0
    9.3602    1.1115    2.5416 H   0  0  0  0  0  0  0  0  0  0  0  0
    7.3443    1.5176    1.1433 H   0  0  0  0  0  0  0  0  0  0  0  0
    7.9733    0.4639   -0.1171 H   0  0  0  0  0  0  0  0  0  0  0  0
    7.2813   -0.4230    2.7490 H   0  0  0  0  0  0  0  0  0  0  0  0
    7.8671   -1.4842    1.4646 H   0  0  0  0  0  0  0  0  0  0  0  0
    5.8438   -0.9032    0.0763 H   0  0  0  0  0  0  0  0  0  0  0  0
    5.2354    0.0795    1.4155 H   0  0  0  0  0  0  0  0  0  0  0  0
    5.0645   -1.8683    2.8800 H   0  0  0  0  0  0  0  0  0  0  0  0
    5.9539   -2.8807    1.7489 H   0  0  0  0  0  0  0  0  0  0  0  0
    4.0948   -2.6936    0.0835 H   0  0  0  0  0  0  0  0  0  0  0  0
    3.6606   -3.4922    1.5915 H   0  0  0  0  0  0  0  0  0  0  0  0
    2.9320   -0.6311    0.7830 H   0  0  0  0  0  0  0  0  0  0  0  0
    2.6928   -1.2741    2.4126 H   0  0  0  0  0  0  0  0  0  0  0  0
    0.5670   -0.3430    1.2703 H   0  0  0  0  0  0  0  0  0  0  0  0
   -1.0122   -2.7031    0.4255 H   0  0  0  0  0  0  0  0  0  0  0  0
   -2.0870   -0.4764    2.2253 H   0  0  0  0  0  0  0  0  0  0  0  0
   -2.9642   -1.8861    1.6538 H   0  0  0  0  0  0  0  0  0  0  0  0
   -0.6380   -1.8580    3.6500 H   0  0  0  0  0  0  0  0  0  0  0  0
   -2.3367   -2.0927    4.0172 H   0  0  0  0  0  0  0  0  0  0  0  0
   -0.6587   -4.0125    2.2978 H   0  0  0  0  0  0  0  0  0  0  0  0
   -2.3582   -4.2179    2.7196 H   0  0  0  0  0  0  0  0  0  0  0  0
   -1.7387   -4.3259    5.1484 H   0  0  0  0  0  0  0  0  0  0  0  0
   -0.0422   -4.0438    4.7450 H   0  0  0  0  0  0  0  0  0  0  0  0
   -0.0333   -6.0743    3.5213 H   0  0  0  0  0  0  0  0  0  0  0  0
   -1.6233   -6.3197    3.7587 H   0  0  0  0  0  0  0  0  0  0  0  0
   -2.8311   -2.0329   -0.9321 H   0  0  0  0  0  0  0  0  0  0  0  0
   -2.1676    0.4410   -2.4681 H   0  0  0  0  0  0  0  0  0  0  0  0
   -0.7683   -1.4716   -3.1669 H   0  0  0  0  0  0  0  0  0  0  0  0
   -3.4028   -2.9412   -3.6135 H   0  0  0  0  0  0  0  0  0  0  0  0
   -1.9287   -3.3780   -4.4718 H   0  0  0  0  0  0  0  0  0  0  0  0
   -1.9838   -3.4623   -2.6823 H   0  0  0  0  0  0  0  0  0  0  0  0
   -2.7306   -0.6950   -5.0673 H   0  0  0  0  0  0  0  0  0  0  0  0
   -4.8845   -1.2180   -1.3347 H   0  0  0  0  0  0  0  0  0  0  0  0
   -6.4478   -0.3604   -3.7120 H   0  0  0  0  0  0  0  0  0  0  0  0
   -7.1008   -2.5131   -1.6168 H   0  0  0  0  0  0  0  0  0  0  0  0
   -8.2241   -1.9117   -4.4181 H   0  0  0  0  0  0  0  0  0  0  0  0
   -8.4128   -3.4892   -3.6645 H   0  0  0  0  0  0  0  0  0  0  0  0
   -9.1170   -2.0589   -2.8879 H   0  0  0  0  0  0  0  0  0  0  0  0
   -6.3298   -3.9235   -3.3754 H   0  0  0  0  0  0  0  0  0  0  0  0
   -6.0802    0.5260   -0.4676 H   0  0  0  0  0  0  0  0  0  0  0  0
   -7.3890    1.3152    1.2020 H   0  0  0  0  0  0  0  0  0  0  0  0
   -9.2067    2.9552    0.5930 H   0  0  0  0  0  0  0  0  0  0  0  0
   -9.1921    2.3618   -1.0493 H   0  0  0  0  0  0  0  0  0  0  0  0
   -6.7445    3.1501   -1.2096 H   0  0  0  0  0  0  0  0  0  0  0  0
   -8.0052    4.3643   -1.0816 H   0  0  0  0  0  0  0  0  0  0  0  0
   -7.5704    4.5500    1.4078 H   0  0  0  0  0  0  0  0  0  0  0  0
   -6.2577    3.3891    1.2451 H   0  0  0  0  0  0  0  0  0  0  0  0
   -5.0666    4.9181   -0.3334 H   0  0  0  0  0  0  0  0  0  0  0  0
   -5.2940    5.6083    1.2756 H   0  0  0  0  0  0  0  0  0  0  0  0
   -5.7880    7.1627   -0.4359 H   0  0  0  0  0  0  0  0  0  0  0  0
   -7.1136    6.8745    0.4594 H   0  0  0  0  0  0  0  0  0  0  0  0
  -10.3174    1.5692    1.4511 H   0  0  0  0  0  0  0  0  0  0  0  0
  -11.0195   -1.3063    1.7486 H   0  0  0  0  0  0  0  0  0  0  0  0
  -11.4234   -0.1083    3.8242 H   0  0  0  0  0  0  0  0  0  0  0  0
  -13.0193   -0.2673    3.0826 H   0  0  0  0  0  0  0  0  0  0  0  0
  -12.8568    1.8752    2.4038 H   0  0  0  0  0  0  0  0  0  0  0  0
  -12.7091    0.8683   -1.0056 H   0  0  0  0  0  0  0  0  0  0  0  0
  1  2  1  0
  2  3  1  0
  3  4  1  0
  4  5  1  0
  5  6  1  0
  6  7  1  0
  7  8  1  0
  8  9  1  0
  9 10  1  0
 10 11  1  0
 11 12  1  0
 12 13  1  0
 13 14  1  0
 14 15  1  0
 15 16  1  0
 16 17  2  0
 16 18  1  0
 18 19  1  0
 19 20  1  0
 20 21  1  0
 21 22  1  0
 22 23  1  0
 23 24  1  0
 19 25  1  0
 25 26  2  0
 25 27  1  0
 27 28  1  0
 28 29  1  0
 29 30  1  0
 29 31  1  0
 28 32  1  0
 32 33  2  0
 32 34  1  0
 34 35  1  0
 35 36  1  0
 36 37  1  0
 36 38  1  0
 35 39  1  0
 39 40  2  0
 39 41  1  0
 41 42  1  0
 42 43  1  0
 43 44  1  0
 44 45  1  0
 45 46  1  0
 46 47  1  0
 42 48  1  0
 48 49  2  0
 48 50  1  0
 50 51  1  0
 51 52  1  0
 52 53  1  0
 51 54  1  0
 54 55  2  0
 54 56  1  0
  1 57  1  0
  1 58  1  0
  1 59  1  0
  2 60  1  0
  2 61  1  0
  3 62  1  0
  3 63  1  0
  4 64  1  0
  4 65  1  0
  5 66  1  0
  5 67  1  0
  6 68  1  0
  6 69  1  0
  7 70  1  0
  7 71  1  0
  8 72  1  0
  8 73  1  0
  9 74  1  0
  9 75  1  0
 10 76  1  0
 10 77  1  0
 11 78  1  0
 11 79  1  0
 12 80  1  0
 12 81  1  0
 13 82  1  0
 13 83  1  0
 14 84  1  0
 14 85  1  0
 15 86  1  0
 15 87  1  0
 18 88  1  0
 19 89  1  6
 20 90  1  0
 20 91  1  0
 21 92  1  0
 21 93  1  0
 22 94  1  0
 22 95  1  0
 23 96  1  0
 23 97  1  0
 24 98  1  0
 24 99  1  0
 27100  1  0
 28101  1  1
 29102  1  1
 30103  1  0
 30104  1  0
 30105  1  0
 31106  1  0
 34107  1  0
 35108  1  6
 36109  1  1
 37110  1  0
 37111  1  0
 37112  1  0
 38113  1  0
 41114  1  0
 42115  1  1
 43116  1  0
 43117  1  0
 44118  1  0
 44119  1  0
 45120  1  0
 45121  1  0
 46122  1  0
 46123  1  0
 47124  1  0
 47125  1  0
 50126  1  0
 51127  1  1
 52128  1  0
 52129  1  0
 53130  1  0
 56131  1  0
M  END
$$$$
