
     RDKit          3D

 52 55  0  0  0  0  0  0  0  0999 V2000
    7.6781    0.6064   -0.8622 C   0  0  0  0  0  0  0  0  0  0  0  0
    6.8026   -0.4601   -0.1864 C   0  0  0  0  0  0  0  0  0  0  0  0
    7.4592   -0.9222    1.1228 C   0  0  0  0  0  0  0  0  0  0  0  0
    5.3969    0.0479   -0.0000 C   0  0  0  0  0  0  0  0  0  0  0  0
    4.8092    0.6026    1.1269 C   0  0  0  0  0  0  0  0  0  0  0  0
    3.5182    0.9481    0.8810 O   0  0  0  0  0  0  0  0  0  0  0  0
    3.2351    0.6650   -0.4425 C   0  0  0  0  0  0  0  0  0  0  0  0
    4.3719    0.0771   -0.9941 C   0  0  0  0  0  0  0  0  0  0  0  0
    1.6490    1.0618   -1.1812 S   0  0  0  0  0  6  0  0  0  0  0  0
    1.5326    2.4936   -0.9987 O   0  0  0  0  0  0  0  0  0  0  0  0
    1.7096    0.4055   -2.4744 O   0  0  0  0  0  0  0  0  0  0  0  0
    0.5052    0.3236   -0.2202 N   0  0  0  0  0  0  0  0  0  0  0  0
   -0.8177    0.1988   -0.6126 C   0  0  0  0  0  0  0  0  0  0  0  0
   -1.2041    0.5288   -1.7358 O   0  0  0  0  0  0  0  0  0  0  0  0
   -1.6306   -0.2105    0.4177 N   0  0  0  0  0  0  0  0  0  0  0  0
   -3.0250   -0.1732    0.2414 C   0  0  0  0  0  0  0  0  0  0  0  0
   -3.6828   -1.1047   -0.5491 C   0  0  0  0  0  0  0  0  0  0  0  0
   -3.1169   -2.2926   -1.2709 C   0  0  0  0  0  0  0  0  0  0  0  0
   -4.3866   -3.1032   -1.5675 C   0  0  0  0  0  0  0  0  0  0  0  0
   -5.5396   -2.0962   -1.6931 C   0  0  0  0  0  0  0  0  0  0  0  0
   -5.0758   -1.0045   -0.7794 C   0  0  0  0  0  0  0  0  0  0  0  0
   -5.8307    0.0276   -0.2527 C   0  0  0  0  0  0  0  0  0  0  0  0
   -5.1729    0.9339    0.5597 C   0  0  0  0  0  0  0  0  0  0  0  0
   -3.7924    0.8278    0.8311 C   0  0  0  0  0  0  0  0  0  0  0  0
   -3.3303    1.9929    1.6518 C   0  0  0  0  0  0  0  0  0  0  0  0
   -4.6581    2.5452    2.1831 C   0  0  0  0  0  0  0  0  0  0  0  0
   -5.7389    2.1869    1.1580 C   0  0  0  0  0  0  0  0  0  0  0  0
    6.8005   -1.5974   -1.0636 O   0  0  0  0  0  0  0  0  0  0  0  0
    7.7808    1.5007   -0.2425 H   0  0  0  0  0  0  0  0  0  0  0  0
    7.2606    0.9103   -1.8299 H   0  0  0  0  0  0  0  0  0  0  0  0
    8.6796    0.2100   -1.0722 H   0  0  0  0  0  0  0  0  0  0  0  0
    8.4423   -1.3691    0.9210 H   0  0  0  0  0  0  0  0  0  0  0  0
    6.8560   -1.6997    1.6061 H   0  0  0  0  0  0  0  0  0  0  0  0
    7.5839   -0.0945    1.8274 H   0  0  0  0  0  0  0  0  0  0  0  0
    5.1646    0.8193    2.1253 H   0  0  0  0  0  0  0  0  0  0  0  0
    4.4440   -0.2624   -2.0240 H   0  0  0  0  0  0  0  0  0  0  0  0
    0.8235    0.0415    0.7045 H   0  0  0  0  0  0  0  0  0  0  0  0
   -1.3033    0.1416    1.3120 H   0  0  0  0  0  0  0  0  0  0  0  0
   -2.4289   -2.8687   -0.6469 H   0  0  0  0  0  0  0  0  0  0  0  0
   -2.6181   -1.9827   -2.1899 H   0  0  0  0  0  0  0  0  0  0  0  0
   -4.5915   -3.7800   -0.7219 H   0  0  0  0  0  0  0  0  0  0  0  0
   -4.2842   -3.7349   -2.4578 H   0  0  0  0  0  0  0  0  0  0  0  0
   -5.6397   -1.7236   -2.7172 H   0  0  0  0  0  0  0  0  0  0  0  0
   -6.4866   -2.5341   -1.3641 H   0  0  0  0  0  0  0  0  0  0  0  0
   -6.8864    0.1292   -0.4823 H   0  0  0  0  0  0  0  0  0  0  0  0
   -2.6737    1.6924    2.4722 H   0  0  0  0  0  0  0  0  0  0  0  0
   -2.8209    2.7249    1.0186 H   0  0  0  0  0  0  0  0  0  0  0  0
   -4.8966    2.0668    3.1415 H   0  0  0  0  0  0  0  0  0  0  0  0
   -4.6139    3.6220    2.3753 H   0  0  0  0  0  0  0  0  0  0  0  0
   -5.8324    2.9608    0.3865 H   0  0  0  0  0  0  0  0  0  0  0  0
   -6.7096    2.0194    1.6337 H   0  0  0  0  0  0  0  0  0  0  0  0
    6.2850   -2.2980   -0.6305 H   0  0  0  0  0  0  0  0  0  0  0  0
  1  2  1  0
  2  3  1  0
  2  4  1  0
  4  5  2  0
  5  6  1  0
  6  7  1  0
  7  8  2  0
  7  9  1  0
  9 10  2  0
  9 11  2  0
  9 12  1  0
 12 13  1  0
 13 14  2  0
 13 15  1  0
 15 16  1  0
 16 17  2  0
 17 18  1  0
 18 19  1  0
 19 20  1  0
 20 21  1  0
 21 22  2  0
 22 23  1  0
 23 24  2  0
 24 25  1  0
 25 26  1  0
 26 27  1  0
  2 28  1  0
  8  4  1  0
 24 16  1  0
 21 17  1  0
 27 23  1  0
  1 29  1  0
  1 30  1  0
  1 31  1  0
  3 32  1  0
  3 33  1  0
  3 34  1  0
  5 35  1  0
  8 36  1  0
 12 37  1  0
 15 38  1  0
 18 39  1  0
 18 40  1  0
 19 41  1  0
 19 42  1  0
 20 43  1  0
 20 44  1  0
 22 45  1  0
 25 46  1  0
 25 47  1  0
 26 48  1  0
 26 49  1  0
 27 50  1  0
 27 51  1  0
 28 52  1  0
M  END
$$$$
