
     RDKit          3D

 51 54  0  0  0  0  0  0  0  0999 V2000
   10.7408   -0.4631    0.7907 C   0  0  0  0  0  0  0  0  0  0  0  0
    9.2776   -0.4634    0.6237 C   0  0  0  0  0  0  0  0  0  0  0  0
    8.4180   -0.1040   -0.3845 C   0  0  0  0  0  0  0  0  0  0  0  0
    7.1218   -0.3689    0.1329 C   0  0  0  0  0  0  0  0  0  0  0  0
    7.2075   -0.8538    1.3756 N   0  0  0  0  0  0  0  0  0  0  0  0
    8.5544   -0.9149    1.6821 O   0  0  0  0  0  0  0  0  0  0  0  0
    5.9548   -0.1503   -0.5777 N   0  0  0  0  0  0  0  0  0  0  0  0
    4.6825   -0.3778   -0.0841 C   0  0  0  0  0  0  0  0  0  0  0  0
    4.4240   -0.7782    1.0429 O   0  0  0  0  0  0  0  0  0  0  0  0
    3.7260   -0.0843   -1.0464 N   0  0  0  0  0  0  0  0  0  0  0  0
    2.3158   -0.1786   -0.9295 C   0  0  0  0  0  0  0  0  0  0  0  0
    1.5264    0.2521   -2.0166 C   0  0  0  0  0  0  0  0  0  0  0  0
    0.1308    0.2198   -1.9579 C   0  0  0  0  0  0  0  0  0  0  0  0
   -0.4898   -0.2334   -0.7960 C   0  0  0  0  0  0  0  0  0  0  0  0
    0.2662   -0.7026    0.2752 C   0  0  0  0  0  0  0  0  0  0  0  0
    1.6644   -0.6700    0.2091 C   0  0  0  0  0  0  0  0  0  0  0  0
   -1.8598   -0.2636   -0.7407 O   0  0  0  0  0  0  0  0  0  0  0  0
   -2.5066    0.7336   -0.0258 C   0  0  0  0  0  0  0  0  0  0  0  0
   -3.8736    0.5165    0.2680 C   0  0  0  0  0  0  0  0  0  0  0  0
   -4.5750   -0.6640   -0.0743 C   0  0  0  0  0  0  0  0  0  0  0  0
   -5.9331   -0.8108    0.2249 C   0  0  0  0  0  0  0  0  0  0  0  0
   -6.6097    0.2377    0.8666 C   0  0  0  0  0  0  0  0  0  0  0  0
   -5.9061    1.3939    1.2221 C   0  0  0  0  0  0  0  0  0  0  0  0
   -4.5569    1.5501    0.9379 C   0  0  0  0  0  0  0  0  0  0  0  0
   -3.9630    2.6952    1.3130 N   0  0  0  0  0  0  0  0  0  0  0  0
   -2.6573    2.8595    1.0253 C   0  0  0  0  0  0  0  0  0  0  0  0
   -1.8943    1.9240    0.3577 C   0  0  0  0  0  0  0  0  0  0  0  0
   -7.9454    0.0399    1.1127 O   0  0  0  0  0  0  0  0  0  0  0  0
   -8.6888    1.1317    1.6367 C   0  0  0  0  0  0  0  0  0  0  0  0
   -6.6835   -1.9182   -0.0796 O   0  0  0  0  0  0  0  0  0  0  0  0
   -6.0085   -3.0521   -0.6049 C   0  0  0  0  0  0  0  0  0  0  0  0
    2.2654    0.8579   -3.4622 Cl  0  0  0  0  0  0  0  0  0  0  0  0
   11.2349   -0.0007   -0.0689 H   0  0  0  0  0  0  0  0  0  0  0  0
   11.1164   -1.4858    0.8873 H   0  0  0  0  0  0  0  0  0  0  0  0
   11.0280    0.0948    1.6860 H   0  0  0  0  0  0  0  0  0  0  0  0
    8.6865    0.2886   -1.3531 H   0  0  0  0  0  0  0  0  0  0  0  0
    6.0652    0.2107   -1.5100 H   0  0  0  0  0  0  0  0  0  0  0  0
    4.0446    0.2873   -1.9310 H   0  0  0  0  0  0  0  0  0  0  0  0
   -0.4700    0.5571   -2.7985 H   0  0  0  0  0  0  0  0  0  0  0  0
   -0.2226   -1.0871    1.1660 H   0  0  0  0  0  0  0  0  0  0  0  0
    2.2149   -1.0378    1.0713 H   0  0  0  0  0  0  0  0  0  0  0  0
   -4.0339   -1.4578   -0.5808 H   0  0  0  0  0  0  0  0  0  0  0  0
   -6.3951    2.2152    1.7358 H   0  0  0  0  0  0  0  0  0  0  0  0
   -2.2289    3.8038    1.3525 H   0  0  0  0  0  0  0  0  0  0  0  0
   -0.8561    2.1488    0.1491 H   0  0  0  0  0  0  0  0  0  0  0  0
   -8.3673    1.3701    2.6561 H   0  0  0  0  0  0  0  0  0  0  0  0
   -8.6270    2.0090    0.9844 H   0  0  0  0  0  0  0  0  0  0  0  0
   -9.7386    0.8252    1.6818 H   0  0  0  0  0  0  0  0  0  0  0  0
   -5.2492   -3.4197    0.0932 H   0  0  0  0  0  0  0  0  0  0  0  0
   -5.5767   -2.8341   -1.5868 H   0  0  0  0  0  0  0  0  0  0  0  0
   -6.7499   -3.8474   -0.7383 H   0  0  0  0  0  0  0  0  0  0  0  0
  1  2  1  0
  2  3  2  0
  3  4  1  0
  4  5  2  0
  5  6  1  0
  4  7  1  0
  7  8  1  0
  8  9  2  0
  8 10  1  0
 10 11  1  0
 11 12  2  0
 12 13  1  0
 13 14  2  0
 14 15  1  0
 15 16  2  0
 14 17  1  0
 17 18  1  0
 18 19  1  0
 19 20  2  0
 20 21  1  0
 21 22  2  0
 22 23  1  0
 23 24  2  0
 24 25  1  0
 25 26  2  0
 26 27  1  0
 22 28  1  0
 28 29  1  0
 21 30  1  0
 30 31  1  0
 12 32  1  0
  6  2  1  0
 16 11  1  0
 27 18  2  0
 24 19  1  0
  1 33  1  0
  1 34  1  0
  1 35  1  0
  3 36  1  0
  7 37  1  0
 10 38  1  0
 13 39  1  0
 15 40  1  0
 16 41  1  0
 20 42  1  0
 23 43  1  0
 26 44  1  0
 27 45  1  0
 29 46  1  0
 29 47  1  0
 29 48  1  0
 31 49  1  0
 31 50  1  0
 31 51  1  0
M  END
$$$$
