
     RDKit          3D

127132  0  0  0  0  0  0  0  0999 V2000
    8.9907    4.3953   -0.1619 C   0  0  0  0  0  0  0  0  0  0  0  0
    8.2546    3.0874   -0.3627 C   0  0  0  0  0  0  0  0  0  0  0  0
    8.7867    2.1382   -1.1586 C   0  0  0  0  0  0  0  0  0  0  0  0
    8.3864    0.7354   -1.5441 C   0  0  0  0  0  0  0  0  0  0  0  0
    7.2691    0.0162   -0.7802 C   0  0  0  0  0  0  0  0  0  0  0  0
    7.0899   -1.4835   -1.1355 C   0  0  1  0  0  0  0  0  0  0  0  0
    8.3853   -2.2892   -0.9418 C   0  0  0  0  0  0  0  0  0  0  0  0
    5.9270   -2.1680   -0.3501 C   0  0  1  0  0  0  0  0  0  0  0  0
    6.2256   -2.3865    1.1569 C   0  0  0  0  0  0  0  0  0  0  0  0
    4.9269   -2.0837    1.9254 C   0  0  0  0  0  0  0  0  0  0  0  0
    3.8017   -2.1435    0.8705 C   0  0  2  0  0  0  0  0  0  0  0  0
    4.5334   -1.4901   -0.3401 C   0  0  2  0  0  0  0  0  0  0  0  0
    3.6637   -1.5378   -1.6013 C   0  0  1  0  0  0  0  0  0  0  0  0
    2.3081   -0.8479   -1.3566 C   0  0  0  0  0  0  0  0  0  0  0  0
    1.5515   -1.3588   -0.1044 C   0  0  1  0  0  0  0  0  0  0  0  0
    2.4621   -1.3264    1.1942 C   0  0  1  0  0  0  0  0  0  0  0  0
    1.6751   -1.9664    2.3657 C   0  0  0  0  0  0  0  0  0  0  0  0
    0.2796   -1.3699    2.5730 C   0  0  0  0  0  0  0  0  0  0  0  0
   -0.5863   -1.4653    1.3000 C   0  0  2  0  0  0  0  0  0  0  0  0
    0.0766   -0.7776    0.0578 C   0  0  2  0  0  0  0  0  0  0  0  0
   -0.7523   -1.1957   -1.2000 C   0  0  0  0  0  0  0  0  0  0  0  0
   -2.2597   -1.3956   -0.9936 C   0  0  0  0  0  0  0  0  0  0  0  0
   -2.8491   -0.7145    0.2428 C   0  0  1  0  0  0  0  0  0  0  0  0
   -2.1082   -1.1309    1.5513 C   0  0  0  0  0  0  0  0  0  0  0  0
   -2.7835   -2.4339    2.0707 C   0  0  0  0  0  0  0  0  0  0  0  0
   -2.3488   -0.0751    2.6555 C   0  0  0  0  0  0  0  0  0  0  0  0
   -2.8177    0.7066    0.0517 O   0  0  0  0  0  0  0  0  0  0  0  0
   -3.9905    1.2166   -0.5924 C   0  0  1  0  0  0  0  0  0  0  0  0
   -5.0644    1.5923    0.4619 C   0  0  1  0  0  0  0  0  0  0  0  0
   -4.7212    2.8906    1.2080 C   0  0  2  0  0  0  0  0  0  0  0  0
   -3.5286    3.6277    0.5937 C   0  0  1  0  0  0  0  0  0  0  0  0
   -3.7202    3.6026   -0.9284 C   0  0  2  0  0  0  0  0  0  0  0  0
   -3.6024    2.2872   -1.4712 O   0  0  0  0  0  0  0  0  0  0  0  0
   -2.7418    4.5278   -1.6535 C   0  0  0  0  0  0  0  0  0  0  0  0
   -3.0535    5.8890   -1.3538 O   0  0  0  0  0  0  0  0  0  0  0  0
   -3.4676    4.9345    1.1762 O   0  0  0  0  0  0  0  0  0  0  0  0
   -4.4454    2.6362    2.5962 O   0  0  0  0  0  0  0  0  0  0  0  0
   -6.3196    1.7867   -0.2308 O   0  0  0  0  0  0  0  0  0  0  0  0
   -7.2227    0.6894   -0.0185 C   0  0  1  0  0  0  0  0  0  0  0  0
   -8.5080    0.9617   -0.8181 C   0  0  1  0  0  0  0  0  0  0  0  0
   -9.5297   -0.1426   -0.5262 C   0  0  2  0  0  0  0  0  0  0  0  0
   -8.8805   -1.5061   -0.2437 C   0  0  1  0  0  0  0  0  0  0  0  0
   -7.4424   -1.6145   -0.7817 C   0  0  2  0  0  0  0  0  0  0  0  0
   -6.5874   -0.5143   -0.4476 O   0  0  0  0  0  0  0  0  0  0  0  0
   -7.3912   -1.8391   -2.3009 C   0  0  0  0  0  0  0  0  0  0  0  0
   -7.9766   -3.0855   -2.6528 O   0  0  0  0  0  0  0  0  0  0  0  0
   -8.8195   -1.6830    1.1865 O   0  0  0  0  0  0  0  0  0  0  0  0
  -10.4364   -0.2391   -1.6318 O   0  0  0  0  0  0  0  0  0  0  0  0
   -9.1073    2.2249   -0.4908 O   0  0  0  0  0  0  0  0  0  0  0  0
    0.0853    0.7703    0.1342 C   0  0  0  0  0  0  0  0  0  0  0  0
    2.8046    0.1285    1.6270 C   0  0  0  0  0  0  0  0  0  0  0  0
    4.2644   -0.8489   -2.6910 O   0  0  0  0  0  0  0  0  0  0  0  0
    3.5133   -3.6654    0.6329 C   0  0  0  0  0  0  0  0  0  0  0  0
    6.7434   -1.5839   -2.5284 O   0  0  0  0  0  0  0  0  0  0  0  0
    6.9520    3.0247    0.3826 C   0  0  0  0  0  0  0  0  0  0  0  0
    8.3835    5.2327   -0.5204 H   0  0  0  0  0  0  0  0  0  0  0  0
    9.9454    4.4258   -0.6971 H   0  0  0  0  0  0  0  0  0  0  0  0
    9.2028    4.5498    0.9012 H   0  0  0  0  0  0  0  0  0  0  0  0
    9.7322    2.4064   -1.6407 H   0  0  0  0  0  0  0  0  0  0  0  0
    8.1335    0.7551   -2.6114 H   0  0  0  0  0  0  0  0  0  0  0  0
    9.3031    0.1466   -1.4562 H   0  0  0  0  0  0  0  0  0  0  0  0
    6.3398    0.5275   -1.0423 H   0  0  0  0  0  0  0  0  0  0  0  0
    7.4323    0.1250    0.2976 H   0  0  0  0  0  0  0  0  0  0  0  0
    8.2043   -3.3590   -1.1001 H   0  0  0  0  0  0  0  0  0  0  0  0
    8.8081   -2.1585    0.0572 H   0  0  0  0  0  0  0  0  0  0  0  0
    9.1512   -2.0178   -1.6754 H   0  0  0  0  0  0  0  0  0  0  0  0
    5.7949   -3.1545   -0.8175 H   0  0  0  0  0  0  0  0  0  0  0  0
    6.5345   -3.4251    1.3260 H   0  0  0  0  0  0  0  0  0  0  0  0
    7.0293   -1.7466    1.5347 H   0  0  0  0  0  0  0  0  0  0  0  0
    5.0413   -1.0930    2.3690 H   0  0  0  0  0  0  0  0  0  0  0  0
    4.7770   -2.7872    2.7521 H   0  0  0  0  0  0  0  0  0  0  0  0
    4.7131   -0.4320   -0.1158 H   0  0  0  0  0  0  0  0  0  0  0  0
    3.5010   -2.5701   -1.9260 H   0  0  0  0  0  0  0  0  0  0  0  0
    2.4665    0.2353   -1.2983 H   0  0  0  0  0  0  0  0  0  0  0  0
    1.6951   -0.9901   -2.2567 H   0  0  0  0  0  0  0  0  0  0  0  0
    1.3740   -2.4235   -0.3054 H   0  0  0  0  0  0  0  0  0  0  0  0
    1.5265   -3.0352    2.1934 H   0  0  0  0  0  0  0  0  0  0  0  0
    2.2472   -1.8817    3.2985 H   0  0  0  0  0  0  0  0  0  0  0  0
    0.3505   -0.3375    2.9250 H   0  0  0  0  0  0  0  0  0  0  0  0
   -0.1963   -1.9352    3.3846 H   0  0  0  0  0  0  0  0  0  0  0  0
   -0.5710   -2.5375    1.0429 H   0  0  0  0  0  0  0  0  0  0  0  0
   -0.5948   -0.4769   -2.0145 H   0  0  0  0  0  0  0  0  0  0  0  0
   -0.3727   -2.1488   -1.5982 H   0  0  0  0  0  0  0  0  0  0  0  0
   -2.4707   -2.4745   -0.9506 H   0  0  0  0  0  0  0  0  0  0  0  0
   -2.7629   -1.0332   -1.8994 H   0  0  0  0  0  0  0  0  0  0  0  0
   -3.8982   -1.0241    0.3343 H   0  0  0  0  0  0  0  0  0  0  0  0
   -3.8418   -2.2682    2.3015 H   0  0  0  0  0  0  0  0  0  0  0  0
   -2.3087   -2.7990    2.9869 H   0  0  0  0  0  0  0  0  0  0  0  0
   -2.7356   -3.2390    1.3280 H   0  0  0  0  0  0  0  0  0  0  0  0
   -3.4210    0.1102    2.7827 H   0  0  0  0  0  0  0  0  0  0  0  0
   -1.8755    0.8853    2.4367 H   0  0  0  0  0  0  0  0  0  0  0  0
   -1.9791   -0.4086    3.6302 H   0  0  0  0  0  0  0  0  0  0  0  0
   -4.3916    0.4590   -1.2752 H   0  0  0  0  0  0  0  0  0  0  0  0
   -5.1639    0.7885    1.2007 H   0  0  0  0  0  0  0  0  0  0  0  0
   -5.5923    3.5583    1.2151 H   0  0  0  0  0  0  0  0  0  0  0  0
   -2.5929    3.1300    0.8732 H   0  0  0  0  0  0  0  0  0  0  0  0
   -4.7304    3.9680   -1.1592 H   0  0  0  0  0  0  0  0  0  0  0  0
   -2.7918    4.3766   -2.7381 H   0  0  0  0  0  0  0  0  0  0  0  0
   -1.7115    4.3291   -1.3434 H   0  0  0  0  0  0  0  0  0  0  0  0
   -3.2823    6.3195   -2.1993 H   0  0  0  0  0  0  0  0  0  0  0  0
   -3.5997    5.5904    0.4553 H   0  0  0  0  0  0  0  0  0  0  0  0
   -4.1129    3.4834    2.9472 H   0  0  0  0  0  0  0  0  0  0  0  0
   -7.4459    0.6421    1.0533 H   0  0  0  0  0  0  0  0  0  0  0  0
   -8.2679    1.0011   -1.8865 H   0  0  0  0  0  0  0  0  0  0  0  0
  -10.1411    0.1453    0.3387 H   0  0  0  0  0  0  0  0  0  0  0  0
   -9.4921   -2.3275   -0.6345 H   0  0  0  0  0  0  0  0  0  0  0  0
   -6.9798   -2.4926   -0.3113 H   0  0  0  0  0  0  0  0  0  0  0  0
   -7.9199   -1.0508   -2.8427 H   0  0  0  0  0  0  0  0  0  0  0  0
   -6.3540   -1.8164   -2.6580 H   0  0  0  0  0  0  0  0  0  0  0  0
   -7.2542   -3.6902   -2.8965 H   0  0  0  0  0  0  0  0  0  0  0  0
   -9.7192   -1.9083    1.4865 H   0  0  0  0  0  0  0  0  0  0  0  0
  -11.1747    0.3687   -1.4519 H   0  0  0  0  0  0  0  0  0  0  0  0
   -9.6790    2.4687   -1.2403 H   0  0  0  0  0  0  0  0  0  0  0  0
   -0.4893    1.2311   -0.6739 H   0  0  0  0  0  0  0  0  0  0  0  0
   -0.3077    1.1489    1.0759 H   0  0  0  0  0  0  0  0  0  0  0  0
    1.0797    1.1997    0.0329 H   0  0  0  0  0  0  0  0  0  0  0  0
    1.9358    0.6808    1.9782 H   0  0  0  0  0  0  0  0  0  0  0  0
    3.2486    0.7220    0.8254 H   0  0  0  0  0  0  0  0  0  0  0  0
    3.4933    0.1541    2.4726 H   0  0  0  0  0  0  0  0  0  0  0  0
    5.1976   -1.1402   -2.7366 H   0  0  0  0  0  0  0  0  0  0  0  0
    4.4071   -4.2312    0.3564 H   0  0  0  0  0  0  0  0  0  0  0  0
    2.7866   -3.8503   -0.1608 H   0  0  0  0  0  0  0  0  0  0  0  0
    3.1460   -4.1475    1.5445 H   0  0  0  0  0  0  0  0  0  0  0  0
    7.5284   -1.3439   -3.0541 H   0  0  0  0  0  0  0  0  0  0  0  0
    6.4365    3.9904    0.3295 H   0  0  0  0  0  0  0  0  0  0  0  0
    7.1291    2.7962    1.4369 H   0  0  0  0  0  0  0  0  0  0  0  0
    6.2520    2.2971   -0.0215 H   0  0  0  0  0  0  0  0  0  0  0  0
  1  2  1  0
  2  3  2  3
  3  4  1  0
  4  5  1  0
  5  6  1  0
  6  7  1  0
  6  8  1  0
  8  9  1  0
  9 10  1  0
 10 11  1  0
 11 12  1  0
 12 13  1  0
 13 14  1  0
 14 15  1  0
 15 16  1  0
 16 17  1  0
 17 18  1  0
 18 19  1  0
 19 20  1  0
 20 21  1  0
 21 22  1  0
 22 23  1  0
 23 24  1  0
 24 25  1  0
 24 26  1  0
 23 27  1  0
 27 28  1  0
 28 29  1  0
 29 30  1  0
 30 31  1  0
 31 32  1  0
 32 33  1  0
 32 34  1  0
 34 35  1  0
 31 36  1  0
 30 37  1  0
 29 38  1  0
 38 39  1  0
 39 40  1  0
 40 41  1  0
 41 42  1  0
 42 43  1  0
 43 44  1  0
 43 45  1  0
 45 46  1  0
 42 47  1  0
 41 48  1  0
 40 49  1  0
 20 50  1  1
 16 51  1  1
 13 52  1  0
 11 53  1  6
  6 54  1  6
  2 55  1  0
 12  8  1  0
 16 11  1  0
 20 15  1  0
 24 19  1  0
 33 28  1  0
 44 39  1  0
  1 56  1  0
  1 57  1  0
  1 58  1  0
  3 59  1  0
  4 60  1  0
  4 61  1  0
  5 62  1  0
  5 63  1  0
  7 64  1  0
  7 65  1  0
  7 66  1  0
  8 67  1  6
  9 68  1  0
  9 69  1  0
 10 70  1  0
 10 71  1  0
 12 72  1  1
 13 73  1  6
 14 74  1  0
 14 75  1  0
 15 76  1  6
 17 77  1  0
 17 78  1  0
 18 79  1  0
 18 80  1  0
 19 81  1  6
 21 82  1  0
 21 83  1  0
 22 84  1  0
 22 85  1  0
 23 86  1  1
 25 87  1  0
 25 88  1  0
 25 89  1  0
 26 90  1  0
 26 91  1  0
 26 92  1  0
 28 93  1  6
 29 94  1  1
 30 95  1  1
 31 96  1  6
 32 97  1  1
 34 98  1  0
 34 99  1  0
 35100  1  0
 36101  1  0
 37102  1  0
 39103  1  1
 40104  1  6
 41105  1  1
 42106  1  6
 43107  1  1
 45108  1  0
 45109  1  0
 46110  1  0
 47111  1  0
 48112  1  0
 49113  1  0
 50114  1  0
 50115  1  0
 50116  1  0
 51117  1  0
 51118  1  0
 51119  1  0
 52120  1  0
 53121  1  0
 53122  1  0
 53123  1  0
 54124  1  0
 55125  1  0
 55126  1  0
 55127  1  0
M  END
$$$$
