
     RDKit          3D

 42 45  0  0  0  0  0  0  0  0999 V2000
    7.0655    0.3430    0.5785 C   0  0  0  0  0  0  0  0  0  0  0  0
    5.6458    0.0148    0.6039 N   0  0  0  0  0  0  0  0  0  0  0  0
    4.9746    0.4955   -0.6032 C   0  0  0  0  0  0  0  0  0  0  0  0
    3.4933    0.2282   -0.5408 C   0  0  0  0  0  0  0  0  0  0  0  0
    2.9331   -0.9177   -1.1226 C   0  0  0  0  0  0  0  0  0  0  0  0
    1.5566   -1.1580   -1.0432 C   0  0  0  0  0  0  0  0  0  0  0  0
    0.7034   -0.2695   -0.3631 C   0  0  0  0  0  0  0  0  0  0  0  0
    1.2759    0.8553    0.2471 C   0  0  0  0  0  0  0  0  0  0  0  0
    2.6454    1.1106    0.1536 C   0  0  0  0  0  0  0  0  0  0  0  0
   -0.7371   -0.5437   -0.2517 C   0  0  0  0  0  0  0  0  0  0  0  0
   -1.8723    0.2649   -0.3133 C   0  0  0  0  0  0  0  0  0  0  0  0
   -1.9640    1.7239   -0.6079 C   0  0  0  0  0  0  0  0  0  0  0  0
   -2.9494    2.4140    0.3276 C   0  0  0  0  0  0  0  0  0  0  0  0
   -4.3317    2.1854   -0.0449 N   0  0  0  0  0  0  0  0  0  0  0  0
   -5.0520    1.0185   -0.0539 C   0  0  0  0  0  0  0  0  0  0  0  0
   -6.2750    1.1094   -0.1698 O   0  0  0  0  0  0  0  0  0  0  0  0
   -4.4161   -0.3174    0.0820 C   0  0  0  0  0  0  0  0  0  0  0  0
   -3.0231   -0.5537   -0.0346 C   0  0  0  0  0  0  0  0  0  0  0  0
   -2.5568   -1.8628    0.1046 C   0  0  0  0  0  0  0  0  0  0  0  0
   -3.3915   -2.9634    0.3230 C   0  0  0  0  0  0  0  0  0  0  0  0
   -4.7537   -2.7051    0.4125 C   0  0  0  0  0  0  0  0  0  0  0  0
   -5.2656   -1.4200    0.3062 C   0  0  0  0  0  0  0  0  0  0  0  0
   -5.5962   -3.7252    0.6126 F   0  0  0  0  0  0  0  0  0  0  0  0
   -1.1927   -1.8204   -0.0111 N   0  0  0  0  0  0  0  0  0  0  0  0
    7.5783   -0.1200   -0.2719 H   0  0  0  0  0  0  0  0  0  0  0  0
    7.2272    1.4287    0.5483 H   0  0  0  0  0  0  0  0  0  0  0  0
    7.5430   -0.0289    1.4914 H   0  0  0  0  0  0  0  0  0  0  0  0
    5.5263   -0.9940    0.6765 H   0  0  0  0  0  0  0  0  0  0  0  0
    5.3944    0.0129   -1.4933 H   0  0  0  0  0  0  0  0  0  0  0  0
    5.1312    1.5762   -0.7266 H   0  0  0  0  0  0  0  0  0  0  0  0
    3.5683   -1.6363   -1.6342 H   0  0  0  0  0  0  0  0  0  0  0  0
    1.1566   -2.0477   -1.5225 H   0  0  0  0  0  0  0  0  0  0  0  0
    0.6604    1.5375    0.8283 H   0  0  0  0  0  0  0  0  0  0  0  0
    3.0640    1.9936    0.6495 H   0  0  0  0  0  0  0  0  0  0  0  0
   -0.9858    2.2065   -0.5031 H   0  0  0  0  0  0  0  0  0  0  0  0
   -2.2719    1.8608   -1.6568 H   0  0  0  0  0  0  0  0  0  0  0  0
   -2.7992    3.5000    0.2828 H   0  0  0  0  0  0  0  0  0  0  0  0
   -2.8160    2.1006    1.3697 H   0  0  0  0  0  0  0  0  0  0  0  0
   -4.9459    2.9907   -0.0697 H   0  0  0  0  0  0  0  0  0  0  0  0
   -3.0197   -3.9767    0.4164 H   0  0  0  0  0  0  0  0  0  0  0  0
   -6.3401   -1.2839    0.3853 H   0  0  0  0  0  0  0  0  0  0  0  0
   -0.5876   -2.6263    0.0891 H   0  0  0  0  0  0  0  0  0  0  0  0
  1  2  1  0
  2  3  1  0
  3  4  1  0
  4  5  2  0
  5  6  1  0
  6  7  2  0
  7  8  1  0
  8  9  2  0
  7 10  1  0
 10 11  2  0
 11 12  1  0
 12 13  1  0
 13 14  1  0
 14 15  1  0
 15 16  2  0
 15 17  1  0
 17 18  2  0
 18 19  1  0
 19 20  2  0
 20 21  1  0
 21 22  2  0
 21 23  1  0
 19 24  1  0
  9  4  1  0
 24 10  1  0
 18 11  1  0
 22 17  1  0
  1 25  1  0
  1 26  1  0
  1 27  1  0
  2 28  1  0
  3 29  1  0
  3 30  1  0
  5 31  1  0
  6 32  1  0
  8 33  1  0
  9 34  1  0
 12 35  1  0
 12 36  1  0
 13 37  1  0
 13 38  1  0
 14 39  1  0
 20 40  1  0
 22 41  1  0
 24 42  1  0
M  END
$$$$
