
     RDKit          3D

 60 64  0  0  0  0  0  0  0  0999 V2000
    9.9733    1.4830   -1.0709 C   0  0  0  0  0  0  0  0  0  0  0  0
    8.6889    0.8317   -0.7163 C   0  0  0  0  0  0  0  0  0  0  0  0
    7.3884    1.1677   -1.0335 C   0  0  0  0  0  0  0  0  0  0  0  0
    6.5268    0.2037   -0.4402 C   0  0  0  0  0  0  0  0  0  0  0  0
    7.3381   -0.7134    0.2312 C   0  0  0  0  0  0  0  0  0  0  0  0
    8.6416   -0.3037    0.0558 N   0  0  0  0  0  0  0  0  0  0  0  0
    6.8200   -1.8181    0.9229 C   0  0  0  0  0  0  0  0  0  0  0  0
    5.4304   -1.9883    0.9305 C   0  0  0  0  0  0  0  0  0  0  0  0
    4.5983   -1.0742    0.2855 C   0  0  0  0  0  0  0  0  0  0  0  0
    5.1336    0.0127   -0.4153 C   0  0  0  0  0  0  0  0  0  0  0  0
    4.3245    0.8558   -1.0778 F   0  0  0  0  0  0  0  0  0  0  0  0
    3.2443   -1.3183    0.2889 O   0  0  0  0  0  0  0  0  0  0  0  0
    2.4613   -0.3687    0.9417 C   0  0  0  0  0  0  0  0  0  0  0  0
    2.9810    0.2493    2.0211 N   0  0  0  0  0  0  0  0  0  0  0  0
    2.1636    1.1120    2.6256 C   0  0  0  0  0  0  0  0  0  0  0  0
    0.8994    1.3858    2.2721 N   0  0  0  0  0  0  0  0  0  0  0  0
    0.4079    0.7408    1.2051 C   0  0  0  0  0  0  0  0  0  0  0  0
   -0.9009    0.9906    0.8108 C   0  0  0  0  0  0  0  0  0  0  0  0
   -1.4815    0.3503   -0.2910 C   0  0  0  0  0  0  0  0  0  0  0  0
   -0.7236   -0.5757   -1.0289 C   0  0  0  0  0  0  0  0  0  0  0  0
    0.5913   -0.8382   -0.6442 C   0  0  0  0  0  0  0  0  0  0  0  0
    1.1583   -0.1807    0.4737 C   0  0  0  0  0  0  0  0  0  0  0  0
   -1.3562   -1.1703   -2.0906 O   0  0  0  0  0  0  0  0  0  0  0  0
   -0.5936   -2.0419   -2.9130 C   0  0  0  0  0  0  0  0  0  0  0  0
   -2.7660    0.5506   -0.7274 O   0  0  0  0  0  0  0  0  0  0  0  0
   -3.6251    1.4608   -0.0398 C   0  0  0  0  0  0  0  0  0  0  0  0
   -4.3090    0.7962    1.1563 C   0  0  0  0  0  0  0  0  0  0  0  0
   -5.2434   -0.3525    0.7526 C   0  0  0  0  0  0  0  0  0  0  0  0
   -6.4020    0.0930   -0.0281 N   0  0  0  0  0  0  0  0  0  0  0  0
   -7.3788    0.8586    0.7488 C   0  0  0  0  0  0  0  0  0  0  0  0
   -8.6294    0.8235   -0.1197 C   0  0  0  0  0  0  0  0  0  0  0  0
   -8.4610   -0.3970   -1.0175 C   0  0  0  0  0  0  0  0  0  0  0  0
   -7.1580   -1.0393   -0.5689 C   0  0  0  0  0  0  0  0  0  0  0  0
    9.8181    2.2816   -1.8033 H   0  0  0  0  0  0  0  0  0  0  0  0
   10.6693    0.7571   -1.5051 H   0  0  0  0  0  0  0  0  0  0  0  0
   10.4387    1.9210   -0.1823 H   0  0  0  0  0  0  0  0  0  0  0  0
    7.0787    2.0162   -1.6311 H   0  0  0  0  0  0  0  0  0  0  0  0
    9.4469   -0.7838    0.4355 H   0  0  0  0  0  0  0  0  0  0  0  0
    7.4683   -2.5217    1.4357 H   0  0  0  0  0  0  0  0  0  0  0  0
    4.9955   -2.8355    1.4549 H   0  0  0  0  0  0  0  0  0  0  0  0
    2.5557    1.6400    3.4883 H   0  0  0  0  0  0  0  0  0  0  0  0
   -1.4578    1.7071    1.4051 H   0  0  0  0  0  0  0  0  0  0  0  0
    1.2038   -1.5475   -1.1917 H   0  0  0  0  0  0  0  0  0  0  0  0
    0.2579   -1.5197   -3.3623 H   0  0  0  0  0  0  0  0  0  0  0  0
   -0.2669   -2.9248   -2.3538 H   0  0  0  0  0  0  0  0  0  0  0  0
   -1.2402   -2.3851   -3.7267 H   0  0  0  0  0  0  0  0  0  0  0  0
   -4.3806    1.7872   -0.7638 H   0  0  0  0  0  0  0  0  0  0  0  0
   -3.0962    2.3751    0.2508 H   0  0  0  0  0  0  0  0  0  0  0  0
   -4.8578    1.5524    1.7288 H   0  0  0  0  0  0  0  0  0  0  0  0
   -3.5517    0.3815    1.8313 H   0  0  0  0  0  0  0  0  0  0  0  0
   -5.5708   -0.8812    1.6575 H   0  0  0  0  0  0  0  0  0  0  0  0
   -4.6653   -1.0765    0.1640 H   0  0  0  0  0  0  0  0  0  0  0  0
   -7.0550    1.8887    0.9281 H   0  0  0  0  0  0  0  0  0  0  0  0
   -7.5889    0.3845    1.7163 H   0  0  0  0  0  0  0  0  0  0  0  0
   -8.7071    1.7292   -0.7334 H   0  0  0  0  0  0  0  0  0  0  0  0
   -9.5360    0.7529    0.4914 H   0  0  0  0  0  0  0  0  0  0  0  0
   -9.3050   -1.0893   -0.9273 H   0  0  0  0  0  0  0  0  0  0  0  0
   -8.3961   -0.0795   -2.0658 H   0  0  0  0  0  0  0  0  0  0  0  0
   -6.6394   -1.5209   -1.4041 H   0  0  0  0  0  0  0  0  0  0  0  0
   -7.3610   -1.7955    0.2008 H   0  0  0  0  0  0  0  0  0  0  0  0
  1  2  1  0
  2  3  2  0
  3  4  1  0
  4  5  2  0
  5  6  1  0
  5  7  1  0
  7  8  2  0
  8  9  1  0
  9 10  2  0
 10 11  1  0
  9 12  1  0
 12 13  1  0
 13 14  2  0
 14 15  1  0
 15 16  2  0
 16 17  1  0
 17 18  2  0
 18 19  1  0
 19 20  2  0
 20 21  1  0
 21 22  2  0
 20 23  1  0
 23 24  1  0
 19 25  1  0
 25 26  1  0
 26 27  1  0
 27 28  1  0
 28 29  1  0
 29 30  1  0
 30 31  1  0
 31 32  1  0
 32 33  1  0
  6  2  1  0
 10  4  1  0
 22 13  1  0
 22 17  1  0
 33 29  1  0
  1 34  1  0
  1 35  1  0
  1 36  1  0
  3 37  1  0
  6 38  1  0
  7 39  1  0
  8 40  1  0
 15 41  1  0
 18 42  1  0
 21 43  1  0
 24 44  1  0
 24 45  1  0
 24 46  1  0
 26 47  1  0
 26 48  1  0
 27 49  1  0
 27 50  1  0
 28 51  1  0
 28 52  1  0
 30 53  1  0
 30 54  1  0
 31 55  1  0
 31 56  1  0
 32 57  1  0
 32 58  1  0
 33 59  1  0
 33 60  1  0
M  END
$$$$
