
     RDKit          3D

100106  0  0  0  0  0  0  0  0999 V2000
    4.8089    0.1431   -2.0463 C   0  0  0  0  0  0  0  0  0  0  0  0
    4.8318   -1.0584   -1.3225 C   0  0  0  0  0  0  0  0  0  0  0  0
    5.7907   -2.0461   -1.6169 C   0  0  0  0  0  0  0  0  0  0  0  0
    6.7142   -1.8218   -2.6332 C   0  0  0  0  0  0  0  0  0  0  0  0
    6.6835   -0.6347   -3.3540 C   0  0  0  0  0  0  0  0  0  0  0  0
    5.7396    0.3403   -3.0568 C   0  0  0  0  0  0  0  0  0  0  0  0
    5.7087    1.5079   -3.7684 O   0  0  0  0  0  0  0  0  0  0  0  0
    7.5793   -0.4009   -4.3595 O   0  0  0  0  0  0  0  0  0  0  0  0
    7.6674   -2.7444   -2.9622 O   0  0  0  0  0  0  0  0  0  0  0  0
    3.8715   -1.3374   -0.2219 C   0  0  0  0  0  0  0  0  0  0  0  0
    3.8938   -2.3617    0.4394 O   0  0  0  0  0  0  0  0  0  0  0  0
    2.9881   -0.3211   -0.0676 O   0  0  0  0  0  0  0  0  0  0  0  0
    2.0703   -0.4610    1.0295 C   0  0  0  0  0  0  0  0  0  0  0  0
    0.8498   -1.3205    0.6567 C   0  0  2  0  0  0  0  0  0  0  0  0
    0.0828   -0.8883   -0.6113 C   0  0  2  0  0  0  0  0  0  0  0  0
   -0.7252    0.3961   -0.3290 C   0  0  1  0  0  0  0  0  0  0  0  0
   -1.6502    0.2047    0.8883 C   0  0  2  0  0  0  0  0  0  0  0  0
   -0.8955   -0.3980    2.0973 C   0  0  1  0  0  0  0  0  0  0  0  0
   -0.0579   -1.5104    1.7535 O   0  0  0  0  0  0  0  0  0  0  0  0
   -0.1162    0.5740    2.8063 O   0  0  0  0  0  0  0  0  0  0  0  0
   -0.8194    1.3668    3.6503 C   0  0  0  0  0  0  0  0  0  0  0  0
   -2.0358    1.3947    3.7477 O   0  0  0  0  0  0  0  0  0  0  0  0
    0.0835    2.2125    4.4757 C   0  0  0  0  0  0  0  0  0  0  0  0
   -0.5074    3.0686    5.4273 C   0  0  0  0  0  0  0  0  0  0  0  0
    0.2996    3.8761    6.2225 C   0  0  0  0  0  0  0  0  0  0  0  0
    1.6811    3.8453    6.0789 C   0  0  0  0  0  0  0  0  0  0  0  0
    2.2619    3.0012    5.1411 C   0  0  0  0  0  0  0  0  0  0  0  0
    1.4787    2.1822    4.3349 C   0  0  0  0  0  0  0  0  0  0  0  0
    3.6211    2.9698    5.0053 O   0  0  0  0  0  0  0  0  0  0  0  0
    2.4800    4.6313    6.8608 O   0  0  0  0  0  0  0  0  0  0  0  0
   -0.2253    4.7139    7.1656 O   0  0  0  0  0  0  0  0  0  0  0  0
   -2.7514   -0.6757    0.5339 O   0  0  0  0  0  0  0  0  0  0  0  0
   -3.7253   -0.0882   -0.1993 C   0  0  0  0  0  0  0  0  0  0  0  0
   -3.7676    1.1038   -0.4685 O   0  0  0  0  0  0  0  0  0  0  0  0
   -4.7789   -1.0365   -0.6577 C   0  0  0  0  0  0  0  0  0  0  0  0
   -6.0219   -0.4032   -0.9073 C   0  0  0  0  0  0  0  0  0  0  0  0
   -7.1132   -1.1103   -1.3977 C   0  0  0  0  0  0  0  0  0  0  0  0
   -6.9917   -2.4655   -1.6310 C   0  0  0  0  0  0  0  0  0  0  0  0
   -5.7752   -3.1030   -1.3809 C   0  0  0  0  0  0  0  0  0  0  0  0
   -4.6390   -2.4264   -0.8975 C   0  0  0  0  0  0  0  0  0  0  0  0
   -3.3752   -3.2695   -0.7097 C   0  0  2  0  0  0  0  0  0  0  0  0
   -2.4847   -3.2421   -1.9932 C   0  0  1  0  0  0  0  0  0  0  0  0
   -1.6113   -1.9983   -1.9840 C   0  0  0  0  0  0  0  0  0  0  0  0
   -1.6384   -1.1225   -2.8324 O   0  0  0  0  0  0  0  0  0  0  0  0
   -0.7873   -2.0237   -0.9062 O   0  0  0  0  0  0  0  0  0  0  0  0
   -1.5072   -4.4224   -2.1898 C   0  0  0  0  0  0  0  0  0  0  0  0
   -2.0332   -5.6256   -2.9249 C   0  0  0  0  0  0  0  0  0  0  0  0
   -1.4967   -6.7210   -2.9418 O   0  0  0  0  0  0  0  0  0  0  0  0
   -3.1698   -5.4157   -3.5981 O   0  0  0  0  0  0  0  0  0  0  0  0
   -3.7982   -4.6744   -0.2256 C   0  0  2  0  0  0  0  0  0  0  0  0
   -4.8189   -5.3223   -1.1404 C   0  0  0  0  0  0  0  0  0  0  0  0
   -4.8507   -6.5318   -1.3453 O   0  0  0  0  0  0  0  0  0  0  0  0
   -5.7604   -4.4796   -1.6875 O   0  0  0  0  0  0  0  0  0  0  0  0
   -4.3134   -4.5799    1.1069 O   0  0  0  0  0  0  0  0  0  0  0  0
   -8.0591   -3.1740   -2.1069 O   0  0  0  0  0  0  0  0  0  0  0  0
   -8.2952   -0.4796   -1.6491 O   0  0  0  0  0  0  0  0  0  0  0  0
    0.1125    1.5497   -0.1003 O   0  0  0  0  0  0  0  0  0  0  0  0
    0.6349    2.1120   -1.2205 C   0  0  0  0  0  0  0  0  0  0  0  0
    0.5584    1.6516   -2.3493 O   0  0  0  0  0  0  0  0  0  0  0  0
    1.2887    3.4088   -0.9179 C   0  0  0  0  0  0  0  0  0  0  0  0
    1.5870    3.8070    0.3909 C   0  0  0  0  0  0  0  0  0  0  0  0
    2.1860    5.0417    0.6030 C   0  0  0  0  0  0  0  0  0  0  0  0
    2.4873    5.8781   -0.4646 C   0  0  0  0  0  0  0  0  0  0  0  0
    2.2014    5.4851   -1.7686 C   0  0  0  0  0  0  0  0  0  0  0  0
    1.6091    4.2484   -2.0062 C   0  0  0  0  0  0  0  0  0  0  0  0
    2.5114    6.3471   -2.7839 O   0  0  0  0  0  0  0  0  0  0  0  0
    3.0745    7.0859   -0.2172 O   0  0  0  0  0  0  0  0  0  0  0  0
    2.4684    5.4272    1.8813 O   0  0  0  0  0  0  0  0  0  0  0  0
    4.0744    0.9182   -1.8441 H   0  0  0  0  0  0  0  0  0  0  0  0
    5.8074   -2.9728   -1.0478 H   0  0  0  0  0  0  0  0  0  0  0  0
    6.4269    1.4153   -4.4274 H   0  0  0  0  0  0  0  0  0  0  0  0
    8.1388   -1.2091   -4.3738 H   0  0  0  0  0  0  0  0  0  0  0  0
    7.5806   -3.5100   -2.3660 H   0  0  0  0  0  0  0  0  0  0  0  0
    1.7881    0.5509    1.3266 H   0  0  0  0  0  0  0  0  0  0  0  0
    2.5775   -0.8737    1.9125 H   0  0  0  0  0  0  0  0  0  0  0  0
    1.2351   -2.3271    0.4548 H   0  0  0  0  0  0  0  0  0  0  0  0
    0.7885   -0.7610   -1.4390 H   0  0  0  0  0  0  0  0  0  0  0  0
   -1.3596    0.6193   -1.1898 H   0  0  0  0  0  0  0  0  0  0  0  0
   -2.0558    1.1759    1.1936 H   0  0  0  0  0  0  0  0  0  0  0  0
   -1.6327   -0.8313    2.7864 H   0  0  0  0  0  0  0  0  0  0  0  0
   -1.5903    3.0914    5.5327 H   0  0  0  0  0  0  0  0  0  0  0  0
    1.9707    1.5383    3.6123 H   0  0  0  0  0  0  0  0  0  0  0  0
    3.9502    3.6367    5.6400 H   0  0  0  0  0  0  0  0  0  0  0  0
    1.8551    5.1031    7.4496 H   0  0  0  0  0  0  0  0  0  0  0  0
   -1.1973    4.6399    7.1366 H   0  0  0  0  0  0  0  0  0  0  0  0
   -6.1245    0.6648   -0.7193 H   0  0  0  0  0  0  0  0  0  0  0  0
   -2.8125   -2.8709    0.1391 H   0  0  0  0  0  0  0  0  0  0  0  0
   -3.1250   -3.1413   -2.8767 H   0  0  0  0  0  0  0  0  0  0  0  0
   -1.1225   -4.7615   -1.2216 H   0  0  0  0  0  0  0  0  0  0  0  0
   -0.6370   -4.0982   -2.7788 H   0  0  0  0  0  0  0  0  0  0  0  0
   -3.3905   -6.2911   -3.9936 H   0  0  0  0  0  0  0  0  0  0  0  0
   -2.9282   -5.3344   -0.1655 H   0  0  0  0  0  0  0  0  0  0  0  0
   -4.6059   -5.4771    1.3668 H   0  0  0  0  0  0  0  0  0  0  0  0
   -7.7830   -4.1010   -2.1861 H   0  0  0  0  0  0  0  0  0  0  0  0
   -8.1758    0.4782   -1.5501 H   0  0  0  0  0  0  0  0  0  0  0  0
    1.3648    3.1765    1.2454 H   0  0  0  0  0  0  0  0  0  0  0  0
    1.3785    3.9287   -3.0190 H   0  0  0  0  0  0  0  0  0  0  0  0
    2.2526    5.9402   -3.6292 H   0  0  0  0  0  0  0  0  0  0  0  0
    3.1622    7.4941   -1.1057 H   0  0  0  0  0  0  0  0  0  0  0  0
    2.8798    6.3105    1.7928 H   0  0  0  0  0  0  0  0  0  0  0  0
  1  2  2  0
  2  3  1  0
  3  4  2  0
  4  5  1  0
  5  6  2  0
  6  7  1  0
  5  8  1  0
  4  9  1  0
  2 10  1  0
 10 11  2  0
 10 12  1  0
 12 13  1  0
 13 14  1  0
 14 15  1  0
 15 16  1  0
 16 17  1  0
 17 18  1  0
 18 19  1  0
 18 20  1  0
 20 21  1  0
 21 22  2  0
 21 23  1  0
 23 24  2  0
 24 25  1  0
 25 26  2  0
 26 27  1  0
 27 28  2  0
 27 29  1  0
 26 30  1  0
 25 31  1  0
 17 32  1  0
 32 33  1  0
 33 34  2  0
 33 35  1  0
 35 36  2  0
 36 37  1  0
 37 38  2  0
 38 39  1  0
 39 40  2  0
 40 41  1  0
 41 42  1  0
 42 43  1  0
 43 44  2  0
 43 45  1  0
 42 46  1  0
 46 47  1  0
 47 48  2  0
 47 49  1  0
 41 50  1  0
 50 51  1  0
 51 52  2  0
 51 53  1  0
 50 54  1  0
 38 55  1  0
 37 56  1  0
 16 57  1  0
 57 58  1  0
 58 59  2  0
 58 60  1  0
 60 61  2  0
 61 62  1  0
 62 63  2  0
 63 64  1  0
 64 65  2  0
 64 66  1  0
 63 67  1  0
 62 68  1  0
  6  1  1  0
 19 14  1  0
 45 15  1  0
 28 23  1  0
 40 35  1  0
 53 39  1  0
 65 60  1  0
  1 69  1  0
  3 70  1  0
  7 71  1  0
  8 72  1  0
  9 73  1  0
 13 74  1  0
 13 75  1  0
 14 76  1  6
 15 77  1  6
 16 78  1  6
 17 79  1  1
 18 80  1  1
 24 81  1  0
 28 82  1  0
 29 83  1  0
 30 84  1  0
 31 85  1  0
 36 86  1  0
 41 87  1  1
 42 88  1  6
 46 89  1  0
 46 90  1  0
 49 91  1  0
 50 92  1  1
 54 93  1  0
 55 94  1  0
 56 95  1  0
 61 96  1  0
 65 97  1  0
 66 98  1  0
 67 99  1  0
 68100  1  0
M  END
$$$$
