
     RDKit          3D

 51 54  0  0  0  0  0  0  0  0999 V2000
   -2.9086    1.8191   -0.3848 C   0  0  0  0  0  0  0  0  0  0  0  0
   -2.6597    0.3007   -0.4010 C   0  0  0  0  0  0  0  0  0  0  0  0
   -1.9510   -0.1039   -1.7253 C   0  0  0  0  0  0  0  0  0  0  0  0
   -0.4533   -0.4101   -1.6044 C   0  0  0  0  0  0  0  0  0  0  0  0
    0.2196    0.4128   -0.5070 C   0  0  0  0  0  0  0  0  0  0  0  0
   -0.3843    0.0776    0.8758 C   0  0  0  0  0  0  0  0  0  0  0  0
    0.0039    1.1972    1.8723 C   0  0  0  0  0  0  0  0  0  0  0  0
    1.4099    1.7705    1.6317 C   0  0  0  0  0  0  0  0  0  0  0  0
    2.2843    0.7677    0.9226 C   0  0  0  0  0  0  0  0  0  0  0  0
    3.3524    0.2152    1.5273 C   0  0  0  0  0  0  0  0  0  0  0  0
    4.1748   -0.8926    0.9454 C   0  0  0  0  0  0  0  0  0  0  0  0
    5.5425   -0.5101    1.0006 O   0  0  0  0  0  0  0  0  0  0  0  0
    3.8095   -1.2584   -0.4934 C   0  0  0  0  0  0  0  0  0  0  0  0
    2.3095   -1.1127   -0.7564 C   0  0  0  0  0  0  0  0  0  0  0  0
    1.7925    0.3241   -0.4632 C   0  0  0  0  0  0  0  0  0  0  0  0
    2.3653    1.2987   -1.5205 C   0  0  0  0  0  0  0  0  0  0  0  0
   -1.9060   -0.1736    0.8606 C   0  0  0  0  0  0  0  0  0  0  0  0
   -2.2628   -1.6739    0.9477 C   0  0  0  0  0  0  0  0  0  0  0  0
   -3.6182   -1.8344    0.2579 C   0  0  0  0  0  0  0  0  0  0  0  0
   -4.0068   -0.4362   -0.2152 C   0  0  0  0  0  0  0  0  0  0  0  0
   -4.7800   -0.4742   -1.4000 O   0  0  0  0  0  0  0  0  0  0  0  0
   -3.3918    2.1329    0.5474 H   0  0  0  0  0  0  0  0  0  0  0  0
   -3.5654    2.1173   -1.2098 H   0  0  0  0  0  0  0  0  0  0  0  0
   -1.9816    2.3907   -0.4775 H   0  0  0  0  0  0  0  0  0  0  0  0
   -2.4242   -0.9833   -2.1794 H   0  0  0  0  0  0  0  0  0  0  0  0
   -2.0807    0.6966   -2.4658 H   0  0  0  0  0  0  0  0  0  0  0  0
    0.0193   -0.2253   -2.5759 H   0  0  0  0  0  0  0  0  0  0  0  0
   -0.3301   -1.4803   -1.4008 H   0  0  0  0  0  0  0  0  0  0  0  0
   -0.0278    1.4616   -0.7239 H   0  0  0  0  0  0  0  0  0  0  0  0
    0.0920   -0.8408    1.2479 H   0  0  0  0  0  0  0  0  0  0  0  0
   -0.7164    2.0235    1.8279 H   0  0  0  0  0  0  0  0  0  0  0  0
   -0.0567    0.7934    2.8912 H   0  0  0  0  0  0  0  0  0  0  0  0
    1.3399    2.6774    1.0183 H   0  0  0  0  0  0  0  0  0  0  0  0
    1.8406    2.0883    2.5887 H   0  0  0  0  0  0  0  0  0  0  0  0
    3.6289    0.5261    2.5326 H   0  0  0  0  0  0  0  0  0  0  0  0
    4.0559   -1.7764    1.5826 H   0  0  0  0  0  0  0  0  0  0  0  0
    5.6110    0.3507    0.5526 H   0  0  0  0  0  0  0  0  0  0  0  0
    4.1190   -2.2928   -0.6895 H   0  0  0  0  0  0  0  0  0  0  0  0
    4.3838   -0.6530   -1.2052 H   0  0  0  0  0  0  0  0  0  0  0  0
    2.1126   -1.3871   -1.7998 H   0  0  0  0  0  0  0  0  0  0  0  0
    1.7744   -1.8413   -0.1334 H   0  0  0  0  0  0  0  0  0  0  0  0
    3.4564    1.3766   -1.4632 H   0  0  0  0  0  0  0  0  0  0  0  0
    1.9728    2.3137   -1.3870 H   0  0  0  0  0  0  0  0  0  0  0  0
    2.1084    0.9776   -2.5357 H   0  0  0  0  0  0  0  0  0  0  0  0
   -2.3554    0.2976    1.7473 H   0  0  0  0  0  0  0  0  0  0  0  0
   -2.3069   -2.0014    1.9923 H   0  0  0  0  0  0  0  0  0  0  0  0
   -1.5212   -2.3051    0.4457 H   0  0  0  0  0  0  0  0  0  0  0  0
   -3.5470   -2.5400   -0.5780 H   0  0  0  0  0  0  0  0  0  0  0  0
   -4.3717   -2.2363    0.9440 H   0  0  0  0  0  0  0  0  0  0  0  0
   -4.6070    0.0540    0.5624 H   0  0  0  0  0  0  0  0  0  0  0  0
   -5.5650   -1.0190   -1.2191 H   0  0  0  0  0  0  0  0  0  0  0  0
  1  2  1  0
  2  3  1  0
  3  4  1  0
  4  5  1  0
  5  6  1  0
  6  7  1  0
  7  8  1  0
  8  9  1  0
  9 10  2  0
 10 11  1  0
 11 12  1  0
 11 13  1  0
 13 14  1  0
 14 15  1  0
 15 16  1  0
  6 17  1  0
 17 18  1  0
 18 19  1  0
 19 20  1  0
 20 21  1  0
 17  2  1  0
 20  2  1  0
 15  5  1  0
 15  9  1  0
  1 22  1  0
  1 23  1  0
  1 24  1  0
  3 25  1  0
  3 26  1  0
  4 27  1  0
  4 28  1  0
  5 29  1  0
  6 30  1  0
  7 31  1  0
  7 32  1  0
  8 33  1  0
  8 34  1  0
 10 35  1  0
 11 36  1  0
 12 37  1  0
 13 38  1  0
 13 39  1  0
 14 40  1  0
 14 41  1  0
 16 42  1  0
 16 43  1  0
 16 44  1  0
 17 45  1  0
 18 46  1  0
 18 47  1  0
 19 48  1  0
 19 49  1  0
 20 50  1  0
 21 51  1  0
M  END
$$$$
