
     RDKit          3D

 46 48  0  0  0  0  0  0  0  0999 V2000
   -3.2052    3.0621   -1.0680 C   0  0  0  0  0  0  0  0  0  0  0  0
   -2.5899    1.7601   -0.9970 N   0  0  0  0  0  0  0  0  0  0  0  0
   -3.2903    0.6812   -0.4939 C   0  0  0  0  0  0  0  0  0  0  0  0
   -4.4658    0.7585   -0.1461 O   0  0  0  0  0  0  0  0  0  0  0  0
   -2.4761   -0.6378   -0.3961 C   0  0  0  0  0  0  0  0  0  0  0  0
   -3.3978   -1.8153    0.0187 C   0  0  0  0  0  0  0  0  0  0  0  0
   -4.0952   -2.2899   -1.2610 C   0  0  0  0  0  0  0  0  0  0  0  0
   -3.3234   -1.6509   -2.3984 C   0  0  0  0  0  0  0  0  0  0  0  0
   -3.0556   -2.5379   -3.3778 F   0  0  0  0  0  0  0  0  0  0  0  0
   -4.0396   -0.6476   -2.9521 F   0  0  0  0  0  0  0  0  0  0  0  0
   -2.0435   -1.1033   -1.8001 C   0  0  0  0  0  0  0  0  0  0  0  0
   -1.3359   -0.4554    0.6153 C   0  0  0  0  0  0  0  0  0  0  0  0
    0.0191   -0.4027    0.2304 C   0  0  0  0  0  0  0  0  0  0  0  0
    1.0560   -0.2139    1.1678 C   0  0  0  0  0  0  0  0  0  0  0  0
    0.6956   -0.0657    2.5137 C   0  0  0  0  0  0  0  0  0  0  0  0
    1.6396    0.1132    3.4506 F   0  0  0  0  0  0  0  0  0  0  0  0
   -0.6334   -0.1000    2.9204 C   0  0  0  0  0  0  0  0  0  0  0  0
   -1.6423   -0.2903    1.9781 C   0  0  0  0  0  0  0  0  0  0  0  0
    2.4648   -0.1699    0.7360 C   0  0  0  0  0  0  0  0  0  0  0  0
    3.0101   -1.1890   -0.0590 C   0  0  0  0  0  0  0  0  0  0  0  0
    4.3460   -1.1472   -0.4695 C   0  0  0  0  0  0  0  0  0  0  0  0
    5.1726   -0.0813   -0.0938 C   0  0  0  0  0  0  0  0  0  0  0  0
    6.5387   -0.0810   -0.5387 C   0  0  0  0  0  0  0  0  0  0  0  0
    7.6387   -0.0872   -0.9055 N   0  0  0  0  0  0  0  0  0  0  0  0
    4.6556    0.9538    0.7020 C   0  0  0  0  0  0  0  0  0  0  0  0
    3.3058    0.8943    1.1064 C   0  0  0  0  0  0  0  0  0  0  0  0
    5.5221    2.1155    1.1236 C   0  0  0  0  0  0  0  0  0  0  0  0
    6.5947    1.7260    1.8619 F   0  0  0  0  0  0  0  0  0  0  0  0
    4.8618    3.0329    1.8842 F   0  0  0  0  0  0  0  0  0  0  0  0
    6.0135    2.8069    0.0607 F   0  0  0  0  0  0  0  0  0  0  0  0
   -2.5996    3.6974   -1.7183 H   0  0  0  0  0  0  0  0  0  0  0  0
   -4.2201    2.9797   -1.4662 H   0  0  0  0  0  0  0  0  0  0  0  0
   -3.2416    3.4882   -0.0618 H   0  0  0  0  0  0  0  0  0  0  0  0
   -1.5791    1.7221   -0.9885 H   0  0  0  0  0  0  0  0  0  0  0  0
   -4.1307   -1.5535    0.7899 H   0  0  0  0  0  0  0  0  0  0  0  0
   -2.8011   -2.6467    0.4185 H   0  0  0  0  0  0  0  0  0  0  0  0
   -5.1400   -1.9624   -1.2716 H   0  0  0  0  0  0  0  0  0  0  0  0
   -4.0795   -3.3829   -1.3203 H   0  0  0  0  0  0  0  0  0  0  0  0
   -1.6305   -0.2999   -2.4183 H   0  0  0  0  0  0  0  0  0  0  0  0
   -1.2993   -1.9081   -1.7495 H   0  0  0  0  0  0  0  0  0  0  0  0
    0.2927   -0.4940   -0.8194 H   0  0  0  0  0  0  0  0  0  0  0  0
   -0.8751    0.0241    3.9720 H   0  0  0  0  0  0  0  0  0  0  0  0
   -2.6772   -0.2987    2.3203 H   0  0  0  0  0  0  0  0  0  0  0  0
    2.3997   -2.0414   -0.3547 H   0  0  0  0  0  0  0  0  0  0  0  0
    4.7374   -1.9595   -1.0817 H   0  0  0  0  0  0  0  0  0  0  0  0
    2.9030    1.6977    1.7266 H   0  0  0  0  0  0  0  0  0  0  0  0
  1  2  1  0
  2  3  1  0
  3  4  2  0
  3  5  1  0
  5  6  1  0
  6  7  1  0
  7  8  1  0
  8  9  1  0
  8 10  1  0
  8 11  1  0
  5 12  1  0
 12 13  2  0
 13 14  1  0
 14 15  2  0
 15 16  1  0
 15 17  1  0
 17 18  2  0
 14 19  1  0
 19 20  2  0
 20 21  1  0
 21 22  2  0
 22 23  1  0
 23 24  3  0
 22 25  1  0
 25 26  2  0
 25 27  1  0
 27 28  1  0
 27 29  1  0
 27 30  1  0
 11  5  1  0
 18 12  1  0
 26 19  1  0
  1 31  1  0
  1 32  1  0
  1 33  1  0
  2 34  1  0
  6 35  1  0
  6 36  1  0
  7 37  1  0
  7 38  1  0
 11 39  1  0
 11 40  1  0
 13 41  1  0
 17 42  1  0
 18 43  1  0
 20 44  1  0
 21 45  1  0
 26 46  1  0
M  END
$$$$
