
     RDKit          3D

 30 32  0  0  0  0  0  0  0  0999 V2000
    4.9521    0.4837    1.6909 O   0  0  0  0  0  0  0  0  0  0  0  0
    4.0238    0.1181    0.7614 C   0  0  0  0  0  0  0  0  0  0  0  0
    4.4011   -0.4500   -0.4527 C   0  0  0  0  0  0  0  0  0  0  0  0
    3.4156   -0.8065   -1.3704 C   0  0  0  0  0  0  0  0  0  0  0  0
    3.8410   -1.3602   -2.5480 O   0  0  0  0  0  0  0  0  0  0  0  0
    2.0652   -0.5951   -1.0721 C   0  0  0  0  0  0  0  0  0  0  0  0
    1.0013   -0.9573   -2.0150 C   0  0  0  0  0  0  0  0  0  0  0  0
    1.2615   -1.4597   -3.1028 O   0  0  0  0  0  0  0  0  0  0  0  0
   -0.3827   -0.6922   -1.5980 C   0  0  0  0  0  0  0  0  0  0  0  0
   -0.6055   -0.1460   -0.3935 C   0  0  0  0  0  0  0  0  0  0  0  0
    0.3954    0.2093    0.4985 O   0  0  0  0  0  0  0  0  0  0  0  0
    1.7009   -0.0258    0.1460 C   0  0  0  0  0  0  0  0  0  0  0  0
    2.6829    0.3332    1.0687 C   0  0  0  0  0  0  0  0  0  0  0  0
   -1.9708    0.1549    0.0806 C   0  0  0  0  0  0  0  0  0  0  0  0
   -3.0270   -0.7528   -0.0962 C   0  0  0  0  0  0  0  0  0  0  0  0
   -4.3100   -0.4521    0.3689 C   0  0  0  0  0  0  0  0  0  0  0  0
   -4.5434    0.7531    1.0182 C   0  0  0  0  0  0  0  0  0  0  0  0
   -5.8095    1.0041    1.4551 O   0  0  0  0  0  0  0  0  0  0  0  0
   -3.5135    1.6651    1.2150 C   0  0  0  0  0  0  0  0  0  0  0  0
   -2.2301    1.3627    0.7491 C   0  0  0  0  0  0  0  0  0  0  0  0
    5.8379    0.2726    1.3498 H   0  0  0  0  0  0  0  0  0  0  0  0
    5.4440   -0.6209   -0.7003 H   0  0  0  0  0  0  0  0  0  0  0  0
    3.0486   -1.5610   -3.0966 H   0  0  0  0  0  0  0  0  0  0  0  0
   -1.1629   -0.9473   -2.3032 H   0  0  0  0  0  0  0  0  0  0  0  0
    2.4083    0.7767    2.0217 H   0  0  0  0  0  0  0  0  0  0  0  0
   -2.8645   -1.7107   -0.5849 H   0  0  0  0  0  0  0  0  0  0  0  0
   -5.1226   -1.1595    0.2290 H   0  0  0  0  0  0  0  0  0  0  0  0
   -5.8219    1.8710    1.8930 H   0  0  0  0  0  0  0  0  0  0  0  0
   -3.6844    2.6082    1.7244 H   0  0  0  0  0  0  0  0  0  0  0  0
   -1.4310    2.0844    0.9080 H   0  0  0  0  0  0  0  0  0  0  0  0
  1  2  1  0
  2  3  2  0
  3  4  1  0
  4  5  1  0
  4  6  2  0
  6  7  1  0
  7  8  2  0
  7  9  1  0
  9 10  2  0
 10 11  1  0
 11 12  1  0
 12 13  2  0
 10 14  1  0
 14 15  2  0
 15 16  1  0
 16 17  2  0
 17 18  1  0
 17 19  1  0
 19 20  2  0
 13  2  1  0
 20 14  1  0
 12  6  1  0
  1 21  1  0
  3 22  1  0
  5 23  1  0
  9 24  1  0
 13 25  1  0
 15 26  1  0
 16 27  1  0
 18 28  1  0
 19 29  1  0
 20 30  1  0
M  END
$$$$
