
     RDKit          3D

 76 79  0  0  0  0  0  0  0  0999 V2000
    1.0344    3.0611   -0.3188 C   0  0  0  0  0  0  0  0  0  0  0  0
    0.0528    2.3563   -1.2510 C   0  0  0  0  0  0  0  0  0  0  0  0
    0.5460    2.3247   -2.6974 C   0  0  0  0  0  0  0  0  0  0  0  0
   -0.4060    0.9841   -0.7756 C   0  0  0  0  0  0  0  0  0  0  0  0
   -1.7317    0.5416   -0.6676 C   0  0  0  0  0  0  0  0  0  0  0  0
   -2.9248    1.3333   -1.0278 C   0  0  0  0  0  0  0  0  0  0  0  0
   -2.9171    2.0860   -1.9956 O   0  0  0  0  0  0  0  0  0  0  0  0
   -3.9884    1.1388   -0.1674 N   0  0  0  0  0  0  0  0  0  0  0  0
   -5.2740    1.7098   -0.2266 C   0  0  0  0  0  0  0  0  0  0  0  0
   -6.1898    1.3148    0.7584 C   0  0  0  0  0  0  0  0  0  0  0  0
   -7.4864    1.8354    0.7781 C   0  0  0  0  0  0  0  0  0  0  0  0
   -7.8807    2.7561   -0.1883 C   0  0  0  0  0  0  0  0  0  0  0  0
   -6.9784    3.1519   -1.1734 C   0  0  0  0  0  0  0  0  0  0  0  0
   -5.6803    2.6302   -1.1934 C   0  0  0  0  0  0  0  0  0  0  0  0
   -1.6890   -0.8091   -0.1925 C   0  0  0  0  0  0  0  0  0  0  0  0
   -0.3593   -1.1775   -0.0575 C   0  0  0  0  0  0  0  0  0  0  0  0
    0.4133   -0.0732   -0.4036 N   0  0  0  0  0  0  0  0  0  0  0  0
    1.8753   -0.1056   -0.4237 C   0  0  0  0  0  0  0  0  0  0  0  0
    2.4937    0.0930    0.9642 C   0  0  0  0  0  0  0  0  0  0  0  0
    3.9949   -0.2071    1.0139 C   0  0  0  0  0  0  0  0  0  0  0  0
    4.2393   -1.5515    0.5967 O   0  0  0  0  0  0  0  0  0  0  0  0
    4.8294    0.7480    0.1470 C   0  0  0  0  0  0  0  0  0  0  0  0
    6.3364    0.4539    0.2639 C   0  0  0  0  0  0  0  0  0  0  0  0
    6.6281   -0.7875   -0.3876 O   0  0  0  0  0  0  0  0  0  0  0  0
    7.1947    1.5301   -0.3985 C   0  0  0  0  0  0  0  0  0  0  0  0
    7.2816    2.7693    0.4444 C   0  0  0  0  0  0  0  0  0  0  0  0
    8.1180    3.6844   -0.0844 O   0  0  0  0  0  0  0  0  0  0  0  0
    6.6888    3.0000    1.4850 O   0  0  0  0  0  0  0  0  0  0  0  0
    0.2003   -2.4876    0.2942 C   0  0  0  0  0  0  0  0  0  0  0  0
    0.3928   -2.8434    1.6361 C   0  0  0  0  0  0  0  0  0  0  0  0
    0.9264   -4.0908    1.9630 C   0  0  0  0  0  0  0  0  0  0  0  0
    1.2600   -4.9799    0.9475 C   0  0  0  0  0  0  0  0  0  0  0  0
    1.7749   -6.1751    1.2629 F   0  0  0  0  0  0  0  0  0  0  0  0
    1.0678   -4.6473   -0.3883 C   0  0  0  0  0  0  0  0  0  0  0  0
    0.5325   -3.4008   -0.7161 C   0  0  0  0  0  0  0  0  0  0  0  0
   -2.7917   -1.7402    0.0031 C   0  0  0  0  0  0  0  0  0  0  0  0
   -3.5658   -2.1451   -1.0904 C   0  0  0  0  0  0  0  0  0  0  0  0
   -4.6546   -2.9978   -0.9014 C   0  0  0  0  0  0  0  0  0  0  0  0
   -4.9744   -3.4486    0.3788 C   0  0  0  0  0  0  0  0  0  0  0  0
   -4.2075   -3.0474    1.4722 C   0  0  0  0  0  0  0  0  0  0  0  0
   -3.1203   -2.1918    1.2868 C   0  0  0  0  0  0  0  0  0  0  0  0
    1.0829    4.1283   -0.5647 H   0  0  0  0  0  0  0  0  0  0  0  0
    2.0530    2.6786   -0.4082 H   0  0  0  0  0  0  0  0  0  0  0  0
    0.7206    2.9764    0.7267 H   0  0  0  0  0  0  0  0  0  0  0  0
   -0.8281    3.0094   -1.2450 H   0  0  0  0  0  0  0  0  0  0  0  0
    0.7647    3.3380   -3.0515 H   0  0  0  0  0  0  0  0  0  0  0  0
    1.4553    1.7297   -2.8170 H   0  0  0  0  0  0  0  0  0  0  0  0
   -0.2147    1.8972   -3.3598 H   0  0  0  0  0  0  0  0  0  0  0  0
   -3.8281    0.4962    0.5957 H   0  0  0  0  0  0  0  0  0  0  0  0
   -5.9085    0.5927    1.5207 H   0  0  0  0  0  0  0  0  0  0  0  0
   -8.1870    1.5205    1.5469 H   0  0  0  0  0  0  0  0  0  0  0  0
   -8.8885    3.1634   -0.1771 H   0  0  0  0  0  0  0  0  0  0  0  0
   -7.2809    3.8695   -1.9319 H   0  0  0  0  0  0  0  0  0  0  0  0
   -5.0115    2.9674   -1.9790 H   0  0  0  0  0  0  0  0  0  0  0  0
    2.1711   -1.0653   -0.8591 H   0  0  0  0  0  0  0  0  0  0  0  0
    2.2301    0.6489   -1.1243 H   0  0  0  0  0  0  0  0  0  0  0  0
    1.9969   -0.5661    1.6827 H   0  0  0  0  0  0  0  0  0  0  0  0
    2.3104    1.1118    1.3204 H   0  0  0  0  0  0  0  0  0  0  0  0
    4.3314   -0.1256    2.0546 H   0  0  0  0  0  0  0  0  0  0  0  0
    3.6791   -2.1408    1.1389 H   0  0  0  0  0  0  0  0  0  0  0  0
    4.5423    0.6288   -0.9049 H   0  0  0  0  0  0  0  0  0  0  0  0
    4.6111    1.7792    0.4441 H   0  0  0  0  0  0  0  0  0  0  0  0
    6.6194    0.3416    1.3172 H   0  0  0  0  0  0  0  0  0  0  0  0
    5.9133   -1.4101   -0.1307 H   0  0  0  0  0  0  0  0  0  0  0  0
    6.7924    1.7897   -1.3840 H   0  0  0  0  0  0  0  0  0  0  0  0
    8.2119    1.1466   -0.5431 H   0  0  0  0  0  0  0  0  0  0  0  0
    8.0958    4.4334    0.5469 H   0  0  0  0  0  0  0  0  0  0  0  0
    0.1236   -2.1510    2.4299 H   0  0  0  0  0  0  0  0  0  0  0  0
    1.0756   -4.3777    2.9991 H   0  0  0  0  0  0  0  0  0  0  0  0
    1.3291   -5.3597   -1.1643 H   0  0  0  0  0  0  0  0  0  0  0  0
    0.3718   -3.1433   -1.7609 H   0  0  0  0  0  0  0  0  0  0  0  0
   -3.3285   -1.7972   -2.0935 H   0  0  0  0  0  0  0  0  0  0  0  0
   -5.2540   -3.3087   -1.7538 H   0  0  0  0  0  0  0  0  0  0  0  0
   -5.8217   -4.1145    0.5226 H   0  0  0  0  0  0  0  0  0  0  0  0
   -4.4560   -3.4028    2.4686 H   0  0  0  0  0  0  0  0  0  0  0  0
   -2.5355   -1.8798    2.1484 H   0  0  0  0  0  0  0  0  0  0  0  0
  1  2  1  0
  2  3  1  0
  2  4  1  0
  4  5  2  0
  5  6  1  0
  6  7  2  0
  6  8  1  0
  8  9  1  0
  9 10  2  0
 10 11  1  0
 11 12  2  0
 12 13  1  0
 13 14  2  0
  5 15  1  0
 15 16  2  0
 16 17  1  0
 17 18  1  0
 18 19  1  0
 19 20  1  0
 20 21  1  0
 20 22  1  0
 22 23  1  0
 23 24  1  0
 23 25  1  0
 25 26  1  0
 26 27  1  0
 26 28  2  0
 16 29  1  0
 29 30  2  0
 30 31  1  0
 31 32  2  0
 32 33  1  0
 32 34  1  0
 34 35  2  0
 15 36  1  0
 36 37  2  0
 37 38  1  0
 38 39  2  0
 39 40  1  0
 40 41  2  0
 17  4  1  0
 35 29  1  0
 41 36  1  0
 14  9  1  0
  1 42  1  0
  1 43  1  0
  1 44  1  0
  2 45  1  0
  3 46  1  0
  3 47  1  0
  3 48  1  0
  8 49  1  0
 10 50  1  0
 11 51  1  0
 12 52  1  0
 13 53  1  0
 14 54  1  0
 18 55  1  0
 18 56  1  0
 19 57  1  0
 19 58  1  0
 20 59  1  0
 21 60  1  0
 22 61  1  0
 22 62  1  0
 23 63  1  0
 24 64  1  0
 25 65  1  0
 25 66  1  0
 27 67  1  0
 30 68  1  0
 31 69  1  0
 34 70  1  0
 35 71  1  0
 37 72  1  0
 38 73  1  0
 39 74  1  0
 40 75  1  0
 41 76  1  0
M  END
$$$$
