
     RDKit          3D

 32 34  0  0  0  0  0  0  0  0999 V2000
    5.4356   -0.5218    0.0695 N   0  0  0  0  0  0  0  0  0  0  0  0
    4.1411   -1.0057   -0.0634 C   0  0  0  0  0  0  0  0  0  0  0  0
    3.9469   -2.3428    0.0035 N   0  0  0  0  0  0  0  0  0  0  0  0
    2.6900   -2.8176   -0.1309 C   0  0  0  0  0  0  0  0  0  0  0  0
    1.5439   -2.1245   -0.3139 N   0  0  0  0  0  0  0  0  0  0  0  0
    1.7945   -0.8035   -0.3627 C   0  0  0  0  0  0  0  0  0  0  0  0
    3.0230   -0.1749   -0.2441 C   0  0  0  0  0  0  0  0  0  0  0  0
    2.8799    1.1954   -0.3188 N   0  0  0  0  0  0  0  0  0  0  0  0
    1.5897    1.3907   -0.5007 C   0  0  0  0  0  0  0  0  0  0  0  0
    0.8913    0.2136   -0.5273 N   0  0  0  0  0  0  0  0  0  0  0  0
   -0.5358    0.0327   -0.7285 C   0  0  0  0  0  0  0  0  0  0  0  0
   -1.1830    1.3243   -0.8191 O   0  0  0  0  0  0  0  0  0  0  0  0
   -2.2371    1.3461    0.1544 C   0  0  0  0  0  0  0  0  0  0  0  0
   -3.4389    2.1359   -0.3565 C   0  0  0  0  0  0  0  0  0  0  0  0
   -4.5071    2.0703    0.5832 O   0  0  0  0  0  0  0  0  0  0  0  0
   -2.5804   -0.1060    0.4624 C   0  0  0  0  0  0  0  0  0  0  0  0
   -3.1934   -0.2455    1.7385 O   0  0  0  0  0  0  0  0  0  0  0  0
   -1.2097   -0.7553    0.4041 C   0  0  0  0  0  0  0  0  0  0  0  0
   -1.3051   -2.1503    0.1108 O   0  0  0  0  0  0  0  0  0  0  0  0
    6.0434   -1.1749    0.5453 H   0  0  0  0  0  0  0  0  0  0  0  0
    5.4772    0.4528    0.3460 H   0  0  0  0  0  0  0  0  0  0  0  0
    2.5894   -3.8988   -0.0822 H   0  0  0  0  0  0  0  0  0  0  0  0
    1.1147    2.3571   -0.6202 H   0  0  0  0  0  0  0  0  0  0  0  0
   -0.6505   -0.4657   -1.6988 H   0  0  0  0  0  0  0  0  0  0  0  0
   -1.8574    1.8353    1.0615 H   0  0  0  0  0  0  0  0  0  0  0  0
   -3.1620    3.1839   -0.5140 H   0  0  0  0  0  0  0  0  0  0  0  0
   -3.7858    1.7401   -1.3173 H   0  0  0  0  0  0  0  0  0  0  0  0
   -5.2153    2.6488    0.2447 H   0  0  0  0  0  0  0  0  0  0  0  0
   -3.2446   -0.5465   -0.2910 H   0  0  0  0  0  0  0  0  0  0  0  0
   -3.9766    0.3432    1.7284 H   0  0  0  0  0  0  0  0  0  0  0  0
   -0.6922   -0.6471    1.3654 H   0  0  0  0  0  0  0  0  0  0  0  0
   -0.3858   -2.4894    0.0719 H   0  0  0  0  0  0  0  0  0  0  0  0
  1  2  1  0
  2  3  2  0
  3  4  1  0
  4  5  2  0
  5  6  1  0
  6  7  2  0
  7  8  1  0
  8  9  2  0
  9 10  1  0
 10 11  1  0
 11 12  1  0
 12 13  1  0
 13 14  1  0
 14 15  1  0
 13 16  1  0
 16 17  1  0
 16 18  1  0
 18 19  1  0
  7  2  1  0
 18 11  1  0
 10  6  1  0
  1 20  1  0
  1 21  1  0
  4 22  1  0
  9 23  1  0
 11 24  1  0
 13 25  1  0
 14 26  1  0
 14 27  1  0
 15 28  1  0
 16 29  1  0
 17 30  1  0
 18 31  1  0
 19 32  1  0
M  END
$$$$
