
     RDKit          3D

 32 34  0  0  0  0  0  0  0  0999 V2000
    5.1967    0.6959    0.9562 N   0  0  0  0  0  0  0  0  0  0  0  0
    4.0928    0.7533    0.1169 C   0  0  0  0  0  0  0  0  0  0  0  0
    4.3010    0.9401   -1.2067 N   0  0  0  0  0  0  0  0  0  0  0  0
    3.2283    0.9819   -2.0272 C   0  0  0  0  0  0  0  0  0  0  0  0
    1.9208    0.8789   -1.7058 N   0  0  0  0  0  0  0  0  0  0  0  0
    1.7736    0.7095   -0.3821 C   0  0  0  0  0  0  0  0  0  0  0  0
    2.7705    0.6395    0.5764 C   0  0  0  0  0  0  0  0  0  0  0  0
    2.2263    0.4773    1.8352 N   0  0  0  0  0  0  0  0  0  0  0  0
    0.9242    0.4429    1.6383 C   0  0  0  0  0  0  0  0  0  0  0  0
    0.6052    0.5585    0.3128 N   0  0  0  0  0  0  0  0  0  0  0  0
   -0.7059    0.5518   -0.2902 C   0  0  0  0  0  0  0  0  0  0  0  0
   -1.7313    0.5501    0.7294 O   0  0  0  0  0  0  0  0  0  0  0  0
   -2.9395    0.0180    0.1093 C   0  0  0  0  0  0  0  0  0  0  0  0
   -3.5827   -0.9677    1.0820 C   0  0  0  0  0  0  0  0  0  0  0  0
   -3.8890   -0.2976    2.3075 O   0  0  0  0  0  0  0  0  0  0  0  0
   -2.5302   -0.5641   -1.2501 C   0  0  0  0  0  0  0  0  0  0  0  0
   -3.1404   -1.8069   -1.5634 O   0  0  0  0  0  0  0  0  0  0  0  0
   -1.0162   -0.6806   -1.1381 C   0  0  0  0  0  0  0  0  0  0  0  0
   -0.7258   -1.9377   -0.4974 O   0  0  0  0  0  0  0  0  0  0  0  0
    6.0111    1.1453    0.5594 H   0  0  0  0  0  0  0  0  0  0  0  0
    4.9798    0.8775    1.9297 H   0  0  0  0  0  0  0  0  0  0  0  0
    3.4489    1.1173   -3.0823 H   0  0  0  0  0  0  0  0  0  0  0  0
    0.1789    0.3369    2.4160 H   0  0  0  0  0  0  0  0  0  0  0  0
   -0.8153    1.4797   -0.8660 H   0  0  0  0  0  0  0  0  0  0  0  0
   -3.6096    0.8731   -0.0343 H   0  0  0  0  0  0  0  0  0  0  0  0
   -4.5125   -1.3816    0.6809 H   0  0  0  0  0  0  0  0  0  0  0  0
   -2.9016   -1.7900    1.3239 H   0  0  0  0  0  0  0  0  0  0  0  0
   -3.1040    0.2352    2.5362 H   0  0  0  0  0  0  0  0  0  0  0  0
   -2.7912    0.1530   -2.0387 H   0  0  0  0  0  0  0  0  0  0  0  0
   -2.4695   -2.5001   -1.3836 H   0  0  0  0  0  0  0  0  0  0  0  0
   -0.5180   -0.6857   -2.1120 H   0  0  0  0  0  0  0  0  0  0  0  0
   -0.6756   -1.8037    0.4675 H   0  0  0  0  0  0  0  0  0  0  0  0
  1  2  1  0
  2  3  2  0
  3  4  1  0
  4  5  2  0
  5  6  1  0
  6  7  2  0
  7  8  1  0
  8  9  2  0
  9 10  1  0
 10 11  1  0
 11 12  1  0
 12 13  1  0
 13 14  1  0
 14 15  1  0
 13 16  1  0
 16 17  1  0
 16 18  1  0
 18 19  1  0
  7  2  1  0
 18 11  1  0
 10  6  1  0
  1 20  1  0
  1 21  1  0
  4 22  1  0
  9 23  1  0
 11 24  1  0
 13 25  1  0
 14 26  1  0
 14 27  1  0
 15 28  1  0
 16 29  1  0
 17 30  1  0
 18 31  1  0
 19 32  1  0
M  END
$$$$
