
     RDKit          3D

 41 43  0  0  0  0  0  0  0  0999 V2000
    5.5078   -0.5610    0.9912 C   0  0  0  0  0  0  0  0  0  0  0  0
    4.1072   -0.3186    0.4635 C   0  0  0  0  0  0  0  0  0  0  0  0
    2.8713   -0.7274    1.6931 S   0  0  0  0  0  6  0  0  0  0  0  0
    2.9104   -2.1546    1.9255 O   0  0  0  0  0  0  0  0  0  0  0  0
    2.9666    0.2244    2.7762 O   0  0  0  0  0  0  0  0  0  0  0  0
    1.4389   -0.4156    0.8806 N   0  0  0  0  0  0  0  0  0  0  0  0
    0.8322   -1.1676   -0.2446 C   0  0  0  0  0  0  0  0  0  0  0  0
    0.1827    0.1315   -0.7770 C   0  0  0  0  0  0  0  0  0  0  0  0
    0.7572    0.5438   -2.1426 C   0  0  0  0  0  0  0  0  0  0  0  0
    0.4056    1.9254   -2.4999 C   0  0  0  0  0  0  0  0  0  0  0  0
    0.1428    3.0218   -2.7676 N   0  0  0  0  0  0  0  0  0  0  0  0
    0.9162    0.8788    0.3607 C   0  0  0  0  0  0  0  0  0  0  0  0
   -1.3279    0.0673   -0.6950 N   0  0  0  0  0  0  0  0  0  0  0  0
   -2.0956   -0.0108   -1.8398 C   0  0  0  0  0  0  0  0  0  0  0  0
   -3.4275    0.0202   -1.4981 C   0  0  0  0  0  0  0  0  0  0  0  0
   -4.5952    0.0199   -2.4142 C   0  0  0  0  0  0  0  0  0  0  0  0
   -3.4697    0.0268   -0.0864 C   0  0  0  0  0  0  0  0  0  0  0  0
   -4.5809    0.0285    0.6770 N   0  0  0  0  0  0  0  0  0  0  0  0
   -4.3307   -0.0150    1.9809 C   0  0  0  0  0  0  0  0  0  0  0  0
   -3.1320   -0.0834    2.5685 N   0  0  0  0  0  0  0  0  0  0  0  0
   -2.0205   -0.0894    1.8092 C   0  0  0  0  0  0  0  0  0  0  0  0
   -0.8551   -0.1946    2.5292 N   0  0  0  0  0  0  0  0  0  0  0  0
   -2.1622   -0.0037    0.4194 C   0  0  0  0  0  0  0  0  0  0  0  0
    6.2508   -0.3054    0.2298 H   0  0  0  0  0  0  0  0  0  0  0  0
    5.6487   -1.6108    1.2676 H   0  0  0  0  0  0  0  0  0  0  0  0
    5.7049    0.0475    1.8796 H   0  0  0  0  0  0  0  0  0  0  0  0
    3.9226   -0.9415   -0.4160 H   0  0  0  0  0  0  0  0  0  0  0  0
    3.9823    0.7349    0.1998 H   0  0  0  0  0  0  0  0  0  0  0  0
    1.5815   -1.6241   -0.8998 H   0  0  0  0  0  0  0  0  0  0  0  0
    0.1569   -1.9552    0.1041 H   0  0  0  0  0  0  0  0  0  0  0  0
    1.8540    0.4748   -2.1215 H   0  0  0  0  0  0  0  0  0  0  0  0
    0.4523   -0.1529   -2.9314 H   0  0  0  0  0  0  0  0  0  0  0  0
    0.3138    1.4482    1.0704 H   0  0  0  0  0  0  0  0  0  0  0  0
    1.7318    1.5396    0.0441 H   0  0  0  0  0  0  0  0  0  0  0  0
   -1.6706   -0.0522   -2.8320 H   0  0  0  0  0  0  0  0  0  0  0  0
   -5.2267    0.8952   -2.2307 H   0  0  0  0  0  0  0  0  0  0  0  0
   -4.2783    0.0456   -3.4619 H   0  0  0  0  0  0  0  0  0  0  0  0
   -5.1988   -0.8810   -2.2646 H   0  0  0  0  0  0  0  0  0  0  0  0
   -5.1907   -0.0024    2.6418 H   0  0  0  0  0  0  0  0  0  0  0  0
   -0.0461   -0.6356    2.1131 H   0  0  0  0  0  0  0  0  0  0  0  0
   -1.0299   -0.4380    3.4979 H   0  0  0  0  0  0  0  0  0  0  0  0
  1  2  1  0
  2  3  1  0
  3  4  2  0
  3  5  2  0
  3  6  1  0
  6  7  1  0
  7  8  1  0
  8  9  1  0
  9 10  1  0
 10 11  3  0
  8 12  1  0
  8 13  1  0
 13 14  1  0
 14 15  2  0
 15 16  1  0
 15 17  1  0
 17 18  2  0
 18 19  1  0
 19 20  2  0
 20 21  1  0
 21 22  1  0
 21 23  2  0
 12  6  1  0
 23 13  1  0
 23 17  1  0
  1 24  1  0
  1 25  1  0
  1 26  1  0
  2 27  1  0
  2 28  1  0
  7 29  1  0
  7 30  1  0
  9 31  1  0
  9 32  1  0
 12 33  1  0
 12 34  1  0
 14 35  1  0
 16 36  1  0
 16 37  1  0
 16 38  1  0
 19 39  1  0
 22 40  1  0
 22 41  1  0
M  END
$$$$
