
     RDKit          3D

 37 41  0  0  0  0  0  0  0  0999 V2000
    6.2276    1.7978   -0.8990 C   0  0  0  0  0  0  0  0  0  0  0  0
    4.8172    1.9790   -0.9762 O   0  0  0  0  0  0  0  0  0  0  0  0
    4.0325    0.9495   -0.5417 C   0  0  0  0  0  0  0  0  0  0  0  0
    4.4770   -0.2648   -0.0287 C   0  0  0  0  0  0  0  0  0  0  0  0
    3.5525   -1.2316    0.3792 C   0  0  0  0  0  0  0  0  0  0  0  0
    2.1722   -0.9928    0.2778 C   0  0  0  0  0  0  0  0  0  0  0  0
    1.2257   -1.9328    0.6744 C   0  0  0  0  0  0  0  0  0  0  0  0
   -0.1468   -1.6738    0.5643 C   0  0  0  0  0  0  0  0  0  0  0  0
   -1.0486   -2.6535    0.9777 C   0  0  0  0  0  0  0  0  0  0  0  0
   -2.4101   -2.4437    0.8885 C   0  0  0  0  0  0  0  0  0  0  0  0
   -2.8805   -1.2443    0.3817 C   0  0  0  0  0  0  0  0  0  0  0  0
   -4.2698   -1.0516    0.2997 C   0  0  0  0  0  0  0  0  0  0  0  0
   -4.7357    0.1386   -0.2032 C   0  0  0  0  0  0  0  0  0  0  0  0
   -3.8778    1.1189   -0.6169 C   0  0  0  0  0  0  0  0  0  0  0  0
   -2.5048    0.9726   -0.5545 C   0  0  0  0  0  0  0  0  0  0  0  0
   -1.9576   -0.2277   -0.0472 C   0  0  0  0  0  0  0  0  0  0  0  0
   -0.5953   -0.4683    0.0550 N   0  0  0  0  0  4  0  0  0  0  0  0
    0.3431    0.4467   -0.3310 C   0  0  0  0  0  0  0  0  0  0  0  0
    1.7193    0.2231   -0.2360 C   0  0  0  0  0  0  0  0  0  0  0  0
    2.6585    1.1871   -0.6427 C   0  0  0  0  0  0  0  0  0  0  0  0
   -4.5304    2.2172   -1.0811 O   0  0  0  0  0  0  0  0  0  0  0  0
   -5.9096    1.8137   -0.9113 C   0  0  0  0  0  0  0  0  0  0  0  0
   -6.0378    0.4884   -0.3516 O   0  0  0  0  0  0  0  0  0  0  0  0
    6.5507    1.6637    0.1385 H   0  0  0  0  0  0  0  0  0  0  0  0
    6.7026    2.7059   -1.2824 H   0  0  0  0  0  0  0  0  0  0  0  0
    6.5515    0.9606   -1.5260 H   0  0  0  0  0  0  0  0  0  0  0  0
    5.5348   -0.4925    0.0680 H   0  0  0  0  0  0  0  0  0  0  0  0
    3.9293   -2.1733    0.7772 H   0  0  0  0  0  0  0  0  0  0  0  0
    1.5658   -2.8875    1.0777 H   0  0  0  0  0  0  0  0  0  0  0  0
   -0.6947   -3.6035    1.3791 H   0  0  0  0  0  0  0  0  0  0  0  0
   -3.0925   -3.2273    1.2191 H   0  0  0  0  0  0  0  0  0  0  0  0
   -4.9811   -1.8096    0.6195 H   0  0  0  0  0  0  0  0  0  0  0  0
   -1.9202    1.8116   -0.9086 H   0  0  0  0  0  0  0  0  0  0  0  0
    0.0065    1.3959   -0.7321 H   0  0  0  0  0  0  0  0  0  0  0  0
    2.3370    2.1464   -1.0480 H   0  0  0  0  0  0  0  0  0  0  0  0
   -6.4048    1.8338   -1.8887 H   0  0  0  0  0  0  0  0  0  0  0  0
   -6.4055    2.5283   -0.2445 H   0  0  0  0  0  0  0  0  0  0  0  0
  1  2  1  0
  2  3  1  0
  3  4  2  0
  4  5  1  0
  5  6  2  0
  6  7  1  0
  7  8  2  0
  8  9  1  0
  9 10  2  0
 10 11  1  0
 11 12  2  0
 12 13  1  0
 13 14  2  0
 14 15  1  0
 15 16  2  0
 16 17  1  0
 17 18  2  0
 18 19  1  0
 19 20  2  0
 14 21  1  0
 21 22  1  0
 22 23  1  0
 20  3  1  0
 19  6  1  0
 17  8  1  0
 16 11  1  0
 23 13  1  0
  1 24  1  0
  1 25  1  0
  1 26  1  0
  4 27  1  0
  5 28  1  0
  7 29  1  0
  9 30  1  0
 10 31  1  0
 12 32  1  0
 15 33  1  0
 18 34  1  0
 20 35  1  0
 22 36  1  0
 22 37  1  0
M  CHG  1  17   1
M  END
$$$$
