
     RDKit          3D

 80 83  0  0  0  0  0  0  0  0999 V2000
    6.9292   -0.2966   -1.7322 C   0  0  0  0  0  0  0  0  0  0  0  0
    6.1121   -0.9199   -0.6079 C   0  0  0  0  0  0  0  0  0  0  0  0
    5.1087    0.0458    0.0722 C   0  0  0  0  0  0  0  0  0  0  0  0
    4.3250   -0.6830    1.1945 C   0  0  0  0  0  0  0  0  0  0  0  0
    3.5013   -1.9205    0.8069 C   0  0  0  0  0  0  0  0  0  0  0  0
    2.1763   -1.7705    0.0078 C   0  0  0  0  0  0  0  0  0  0  0  0
    2.4072   -1.4240   -1.4642 C   0  0  0  0  0  0  0  0  0  0  0  0
    1.1039   -0.9095    0.7541 C   0  0  0  0  0  0  0  0  0  0  0  0
    1.2899    0.6077    0.5745 C   0  0  0  0  0  0  0  0  0  0  0  0
    0.1620    1.1130   -0.3185 C   0  0  0  0  0  0  0  0  0  0  0  0
   -0.6721   -0.1101   -0.7322 C   0  0  0  0  0  0  0  0  0  0  0  0
   -2.1489    0.2781   -1.0009 C   0  0  0  0  0  0  0  0  0  0  0  0
   -2.8335   -0.7242   -1.9588 C   0  0  0  0  0  0  0  0  0  0  0  0
   -4.3141   -0.8871   -1.7974 C   0  0  0  0  0  0  0  0  0  0  0  0
   -5.0720   -0.1990   -0.9258 C   0  0  0  0  0  0  0  0  0  0  0  0
   -6.5363   -0.5499   -0.7436 C   0  0  0  0  0  0  0  0  0  0  0  0
   -7.4202    0.5734   -0.1875 C   0  0  0  0  0  0  0  0  0  0  0  0
   -7.7529    1.4797   -1.2417 O   0  0  0  0  0  0  0  0  0  0  0  0
   -6.8020    1.3356    0.9923 C   0  0  0  0  0  0  0  0  0  0  0  0
   -5.3277    0.9946    1.2493 C   0  0  0  0  0  0  0  0  0  0  0  0
   -4.4736    0.8803   -0.0383 C   0  0  0  0  0  0  0  0  0  0  0  0
   -4.5114    2.2395   -0.7902 C   0  0  0  0  0  0  0  0  0  0  0  0
   -2.9668    0.5470    0.2940 C   0  0  0  0  0  0  0  0  0  0  0  0
   -2.7662   -0.5946    1.3089 C   0  0  0  0  0  0  0  0  0  0  0  0
   -1.2858   -0.8094    1.6321 C   0  0  0  0  0  0  0  0  0  0  0  0
   -0.4115   -1.1399    0.3925 C   0  0  0  0  0  0  0  0  0  0  0  0
   -0.7054   -2.5904   -0.0242 C   0  0  0  0  0  0  0  0  0  0  0  0
    5.7878    1.3603    0.5805 C   0  0  0  0  0  0  0  0  0  0  0  0
    4.7658    2.4079    1.0392 C   0  0  0  0  0  0  0  0  0  0  0  0
    6.8245    1.1381    1.6850 C   0  0  0  0  0  0  0  0  0  0  0  0
    7.6627    0.4186   -1.3498 H   0  0  0  0  0  0  0  0  0  0  0  0
    6.2826    0.2127   -2.4531 H   0  0  0  0  0  0  0  0  0  0  0  0
    7.4841   -1.0752   -2.2662 H   0  0  0  0  0  0  0  0  0  0  0  0
    6.7924   -1.3515    0.1353 H   0  0  0  0  0  0  0  0  0  0  0  0
    5.5640   -1.7597   -1.0473 H   0  0  0  0  0  0  0  0  0  0  0  0
    4.3969    0.3558   -0.6988 H   0  0  0  0  0  0  0  0  0  0  0  0
    5.0538   -1.0233    1.9424 H   0  0  0  0  0  0  0  0  0  0  0  0
    3.6743    0.0129    1.7289 H   0  0  0  0  0  0  0  0  0  0  0  0
    3.2347   -2.4142    1.7533 H   0  0  0  0  0  0  0  0  0  0  0  0
    4.1418   -2.6497    0.2974 H   0  0  0  0  0  0  0  0  0  0  0  0
    1.8012   -2.8016   -0.0028 H   0  0  0  0  0  0  0  0  0  0  0  0
    3.2511   -1.9920   -1.8695 H   0  0  0  0  0  0  0  0  0  0  0  0
    1.5366   -1.6947   -2.0680 H   0  0  0  0  0  0  0  0  0  0  0  0
    2.6043   -0.3644   -1.6336 H   0  0  0  0  0  0  0  0  0  0  0  0
    1.2278   -1.1456    1.8208 H   0  0  0  0  0  0  0  0  0  0  0  0
    1.2287    1.1061    1.5501 H   0  0  0  0  0  0  0  0  0  0  0  0
    2.2564    0.8855    0.1543 H   0  0  0  0  0  0  0  0  0  0  0  0
    0.5611    1.6200   -1.2045 H   0  0  0  0  0  0  0  0  0  0  0  0
   -0.4258    1.8580    0.2275 H   0  0  0  0  0  0  0  0  0  0  0  0
   -0.2491   -0.4807   -1.6735 H   0  0  0  0  0  0  0  0  0  0  0  0
   -2.1057    1.2251   -1.5569 H   0  0  0  0  0  0  0  0  0  0  0  0
   -2.6318   -0.4120   -2.9920 H   0  0  0  0  0  0  0  0  0  0  0  0
   -2.3894   -1.7183   -1.8683 H   0  0  0  0  0  0  0  0  0  0  0  0
   -4.7710   -1.6603   -2.4121 H   0  0  0  0  0  0  0  0  0  0  0  0
   -6.9547   -0.8972   -1.6969 H   0  0  0  0  0  0  0  0  0  0  0  0
   -6.5799   -1.3920   -0.0400 H   0  0  0  0  0  0  0  0  0  0  0  0
   -8.3725    0.1341    0.1328 H   0  0  0  0  0  0  0  0  0  0  0  0
   -8.3570    2.1476   -0.8762 H   0  0  0  0  0  0  0  0  0  0  0  0
   -7.3607    1.0909    1.9049 H   0  0  0  0  0  0  0  0  0  0  0  0
   -6.9120    2.4183    0.8572 H   0  0  0  0  0  0  0  0  0  0  0  0
   -5.3159    0.0430    1.7958 H   0  0  0  0  0  0  0  0  0  0  0  0
   -4.8999    1.7450    1.9261 H   0  0  0  0  0  0  0  0  0  0  0  0
   -5.5256    2.5860   -1.0002 H   0  0  0  0  0  0  0  0  0  0  0  0
   -4.0082    2.1936   -1.7614 H   0  0  0  0  0  0  0  0  0  0  0  0
   -4.0234    3.0224   -0.1981 H   0  0  0  0  0  0  0  0  0  0  0  0
   -2.5496    1.4453    0.7710 H   0  0  0  0  0  0  0  0  0  0  0  0
   -3.2594   -0.3477    2.2553 H   0  0  0  0  0  0  0  0  0  0  0  0
   -3.2244   -1.5227    0.9535 H   0  0  0  0  0  0  0  0  0  0  0  0
   -0.9177    0.0945    2.1344 H   0  0  0  0  0  0  0  0  0  0  0  0
   -1.1958   -1.6141    2.3738 H   0  0  0  0  0  0  0  0  0  0  0  0
   -0.2584   -2.8369   -0.9921 H   0  0  0  0  0  0  0  0  0  0  0  0
   -1.7754   -2.7957   -0.1078 H   0  0  0  0  0  0  0  0  0  0  0  0
   -0.3167   -3.2943    0.7209 H   0  0  0  0  0  0  0  0  0  0  0  0
    6.3101    1.8183   -0.2681 H   0  0  0  0  0  0  0  0  0  0  0  0
    4.2573    2.1149    1.9624 H   0  0  0  0  0  0  0  0  0  0  0  0
    4.0109    2.5816    0.2658 H   0  0  0  0  0  0  0  0  0  0  0  0
    5.2629    3.3654    1.2321 H   0  0  0  0  0  0  0  0  0  0  0  0
    7.6052    0.4400    1.3704 H   0  0  0  0  0  0  0  0  0  0  0  0
    7.3189    2.0826    1.9390 H   0  0  0  0  0  0  0  0  0  0  0  0
    6.3667    0.7532    2.6013 H   0  0  0  0  0  0  0  0  0  0  0  0
  1  2  1  0
  2  3  1  0
  3  4  1  0
  4  5  1  0
  5  6  1  0
  6  7  1  0
  6  8  1  0
  8  9  1  0
  9 10  1  0
 10 11  1  0
 11 12  1  0
 12 13  1  0
 13 14  1  0
 14 15  2  0
 15 16  1  0
 16 17  1  0
 17 18  1  0
 17 19  1  0
 19 20  1  0
 20 21  1  0
 21 22  1  0
 21 23  1  0
 23 24  1  0
 24 25  1  0
 25 26  1  0
 26 27  1  0
  3 28  1  0
 28 29  1  0
 28 30  1  0
 26  8  1  0
 26 11  1  0
 23 12  1  0
 21 15  1  0
  1 31  1  0
  1 32  1  0
  1 33  1  0
  2 34  1  0
  2 35  1  0
  3 36  1  0
  4 37  1  0
  4 38  1  0
  5 39  1  0
  5 40  1  0
  6 41  1  0
  7 42  1  0
  7 43  1  0
  7 44  1  0
  8 45  1  0
  9 46  1  0
  9 47  1  0
 10 48  1  0
 10 49  1  0
 11 50  1  0
 12 51  1  0
 13 52  1  0
 13 53  1  0
 14 54  1  0
 16 55  1  0
 16 56  1  0
 17 57  1  0
 18 58  1  0
 19 59  1  0
 19 60  1  0
 20 61  1  0
 20 62  1  0
 22 63  1  0
 22 64  1  0
 22 65  1  0
 23 66  1  0
 24 67  1  0
 24 68  1  0
 25 69  1  0
 25 70  1  0
 27 71  1  0
 27 72  1  0
 27 73  1  0
 28 74  1  0
 29 75  1  0
 29 76  1  0
 29 77  1  0
 30 78  1  0
 30 79  1  0
 30 80  1  0
M  END
$$$$
