
     RDKit          3D

 43 44  0  0  0  0  0  0  0  0999 V2000
    2.0230    0.9469    2.2819 C   0  0  0  0  0  0  0  0  0  0  0  0
    1.3341    0.1517    1.1647 C   0  0  0  0  0  0  0  0  0  0  0  0
    0.8855   -1.0628    1.7878 O   0  0  0  0  0  0  0  0  0  0  0  0
    2.3431   -0.1293    0.0490 C   0  0  0  0  0  0  0  0  0  0  0  0
    1.5953   -1.0252   -1.2985 S   0  0  0  0  0  6  0  0  0  0  0  0
    0.9890   -0.1058   -2.2363 O   0  0  0  0  0  0  0  0  0  0  0  0
    0.8166   -2.1038   -0.7116 O   0  0  0  0  0  0  0  0  0  0  0  0
    2.9915   -1.7585   -2.1227 C   0  0  0  0  0  0  0  0  0  0  0  0
    3.3431   -3.0855   -1.8514 C   0  0  0  0  0  0  0  0  0  0  0  0
    4.4354   -3.6500   -2.5112 C   0  0  0  0  0  0  0  0  0  0  0  0
    5.1510   -2.8912   -3.4336 C   0  0  0  0  0  0  0  0  0  0  0  0
    6.1983   -3.4379   -4.0636 F   0  0  0  0  0  0  0  0  0  0  0  0
    4.7934   -1.5758   -3.7159 C   0  0  0  0  0  0  0  0  0  0  0  0
    3.7030   -1.0019   -3.0617 C   0  0  0  0  0  0  0  0  0  0  0  0
    0.1554    1.0167    0.6623 C   0  0  0  0  0  0  0  0  0  0  0  0
    0.3313    1.9272   -0.1387 O   0  0  0  0  0  0  0  0  0  0  0  0
   -1.0296    0.6802    1.2943 N   0  0  0  0  0  0  0  0  0  0  0  0
   -2.3037    1.2380    1.0940 C   0  0  0  0  0  0  0  0  0  0  0  0
   -2.5775    2.2351    0.1596 C   0  0  0  0  0  0  0  0  0  0  0  0
   -3.8759    2.7362    0.0167 C   0  0  0  0  0  0  0  0  0  0  0  0
   -4.9219    2.2457    0.8072 C   0  0  0  0  0  0  0  0  0  0  0  0
   -6.2384    2.7916    0.6254 C   0  0  0  0  0  0  0  0  0  0  0  0
   -7.3011    3.2325    0.4803 N   0  0  0  0  0  0  0  0  0  0  0  0
   -4.6647    1.2389    1.7522 C   0  0  0  0  0  0  0  0  0  0  0  0
   -3.3504    0.7443    1.8825 C   0  0  0  0  0  0  0  0  0  0  0  0
   -5.7699    0.6877    2.6186 C   0  0  0  0  0  0  0  0  0  0  0  0
   -6.7681    0.1189    1.8926 F   0  0  0  0  0  0  0  0  0  0  0  0
   -5.3432   -0.2793    3.4796 F   0  0  0  0  0  0  0  0  0  0  0  0
   -6.3481    1.6413    3.3957 F   0  0  0  0  0  0  0  0  0  0  0  0
    1.3285    1.1491    3.1060 H   0  0  0  0  0  0  0  0  0  0  0  0
    2.4039    1.9082    1.9202 H   0  0  0  0  0  0  0  0  0  0  0  0
    2.8578    0.3792    2.7086 H   0  0  0  0  0  0  0  0  0  0  0  0
    0.5678   -1.6732    1.0838 H   0  0  0  0  0  0  0  0  0  0  0  0
    3.1442   -0.7696    0.4353 H   0  0  0  0  0  0  0  0  0  0  0  0
    2.7794    0.7844   -0.3672 H   0  0  0  0  0  0  0  0  0  0  0  0
    2.7771   -3.6852   -1.1417 H   0  0  0  0  0  0  0  0  0  0  0  0
    4.7304   -4.6775   -2.3199 H   0  0  0  0  0  0  0  0  0  0  0  0
    5.3617   -1.0116   -4.4498 H   0  0  0  0  0  0  0  0  0  0  0  0
    3.4107    0.0200   -3.2962 H   0  0  0  0  0  0  0  0  0  0  0  0
   -0.9443   -0.0690    1.9786 H   0  0  0  0  0  0  0  0  0  0  0  0
   -1.8034    2.6435   -0.4847 H   0  0  0  0  0  0  0  0  0  0  0  0
   -4.0594    3.5142   -0.7240 H   0  0  0  0  0  0  0  0  0  0  0  0
   -3.1510   -0.0381    2.6149 H   0  0  0  0  0  0  0  0  0  0  0  0
  1  2  1  0
  2  3  1  0
  2  4  1  0
  4  5  1  0
  5  6  2  0
  5  7  2  0
  5  8  1  0
  8  9  2  0
  9 10  1  0
 10 11  2  0
 11 12  1  0
 11 13  1  0
 13 14  2  0
  2 15  1  0
 15 16  2  0
 15 17  1  0
 17 18  1  0
 18 19  2  0
 19 20  1  0
 20 21  2  0
 21 22  1  0
 22 23  3  0
 21 24  1  0
 24 25  2  0
 24 26  1  0
 26 27  1  0
 26 28  1  0
 26 29  1  0
 14  8  1  0
 25 18  1  0
  1 30  1  0
  1 31  1  0
  1 32  1  0
  3 33  1  0
  4 34  1  0
  4 35  1  0
  9 36  1  0
 10 37  1  0
 13 38  1  0
 14 39  1  0
 17 40  1  0
 19 41  1  0
 20 42  1  0
 25 43  1  0
M  END
$$$$
