
     RDKit          3D

 65 65  0  0  0  0  0  0  0  0999 V2000
   -4.7472    2.3726    3.3140 C   0  0  0  0  0  0  0  0  0  0  0  0
   -5.1021    1.0273    2.6961 C   0  0  0  0  0  0  0  0  0  0  0  0
   -5.7224    1.1370    1.2994 C   0  0  0  0  0  0  0  0  0  0  0  0
   -4.8178    1.7556    0.2288 C   0  0  0  0  0  0  0  0  0  0  0  0
   -3.5995    0.8803   -0.1015 C   0  0  0  0  0  0  0  0  0  0  0  0
   -2.7969    1.4343   -1.2870 C   0  0  0  0  0  0  0  0  0  0  0  0
   -2.2660    2.7039   -0.9169 O   0  0  0  0  0  0  0  0  0  0  0  0
   -1.6290    0.6026   -1.7513 C   0  0  0  0  0  0  0  0  0  0  0  0
   -1.3365   -0.6677   -1.4143 C   0  0  0  0  0  0  0  0  0  0  0  0
   -0.1142   -1.4081   -1.9376 C   0  0  0  0  0  0  0  0  0  0  0  0
   -0.4379   -2.4155   -3.0618 C   0  0  0  0  0  0  0  0  0  0  0  0
   -1.3059   -1.9014   -4.0567 O   0  0  0  0  0  0  0  0  0  0  0  0
   -1.0134   -3.6339   -2.3565 C   0  0  0  0  0  0  0  0  0  0  0  0
   -0.2720   -3.5952   -1.0449 C   0  0  0  0  0  0  0  0  0  0  0  0
   -0.3067   -4.5106   -0.2319 O   0  0  0  0  0  0  0  0  0  0  0  0
    0.4998   -2.3000   -0.8311 C   0  0  0  0  0  0  0  0  0  0  0  0
    2.0088   -2.5091   -1.0271 C   0  0  0  0  0  0  0  0  0  0  0  0
    2.6882   -3.3685    0.0468 C   0  0  0  0  0  0  0  0  0  0  0  0
    2.5620   -2.8092    1.4352 C   0  0  0  0  0  0  0  0  0  0  0  0
    3.4557   -2.0488    2.0887 C   0  0  0  0  0  0  0  0  0  0  0  0
    4.7690   -1.5411    1.5640 C   0  0  0  0  0  0  0  0  0  0  0  0
    4.9167   -0.0232    1.6972 C   0  0  0  0  0  0  0  0  0  0  0  0
    3.8915    0.7570    0.8740 C   0  0  0  0  0  0  0  0  0  0  0  0
    4.1441    2.2521    0.9324 C   0  0  0  0  0  0  0  0  0  0  0  0
    5.1419    2.7563    1.4381 O   0  0  0  0  0  0  0  0  0  0  0  0
    3.1516    2.9912    0.3339 N   0  0  0  0  0  0  0  0  0  0  0  0
    3.2180    4.4154    0.2523 C   0  0  0  0  0  0  0  0  0  0  0  0
    3.8129    4.7077   -0.9893 O   0  0  0  0  0  0  0  0  0  0  0  0
   -3.9317    2.8614    2.7781 H   0  0  0  0  0  0  0  0  0  0  0  0
   -4.4195    2.2262    4.3473 H   0  0  0  0  0  0  0  0  0  0  0  0
   -5.6142    3.0424    3.3238 H   0  0  0  0  0  0  0  0  0  0  0  0
   -4.2145    0.3859    2.6749 H   0  0  0  0  0  0  0  0  0  0  0  0
   -5.8250    0.5287    3.3556 H   0  0  0  0  0  0  0  0  0  0  0  0
   -6.0280    0.1311    0.9792 H   0  0  0  0  0  0  0  0  0  0  0  0
   -6.6430    1.7330    1.3658 H   0  0  0  0  0  0  0  0  0  0  0  0
   -4.4938    2.7530    0.5410 H   0  0  0  0  0  0  0  0  0  0  0  0
   -5.4140    1.8951   -0.6807 H   0  0  0  0  0  0  0  0  0  0  0  0
   -2.9497    0.8298    0.7796 H   0  0  0  0  0  0  0  0  0  0  0  0
   -3.9492   -0.1341   -0.3182 H   0  0  0  0  0  0  0  0  0  0  0  0
   -3.4722    1.5875   -2.1370 H   0  0  0  0  0  0  0  0  0  0  0  0
   -2.0669    3.1801   -1.7405 H   0  0  0  0  0  0  0  0  0  0  0  0
   -0.9679    1.1101   -2.4549 H   0  0  0  0  0  0  0  0  0  0  0  0
   -1.9855   -1.2089   -0.7269 H   0  0  0  0  0  0  0  0  0  0  0  0
    0.6104   -0.6668   -2.2995 H   0  0  0  0  0  0  0  0  0  0  0  0
    0.4907   -2.6981   -3.5713 H   0  0  0  0  0  0  0  0  0  0  0  0
   -2.1158   -1.5743   -3.6294 H   0  0  0  0  0  0  0  0  0  0  0  0
   -2.0907   -3.5488   -2.1846 H   0  0  0  0  0  0  0  0  0  0  0  0
   -0.7957   -4.5554   -2.9046 H   0  0  0  0  0  0  0  0  0  0  0  0
    0.2789   -1.8977    0.1638 H   0  0  0  0  0  0  0  0  0  0  0  0
    2.4992   -1.5259   -1.0537 H   0  0  0  0  0  0  0  0  0  0  0  0
    2.2047   -2.9811   -1.9998 H   0  0  0  0  0  0  0  0  0  0  0  0
    2.2737   -4.3829    0.0413 H   0  0  0  0  0  0  0  0  0  0  0  0
    3.7431   -3.4944   -0.2225 H   0  0  0  0  0  0  0  0  0  0  0  0
    1.6556   -3.0960    1.9687 H   0  0  0  0  0  0  0  0  0  0  0  0
    3.2208   -1.7675    3.1156 H   0  0  0  0  0  0  0  0  0  0  0  0
    4.9247   -1.8181    0.5171 H   0  0  0  0  0  0  0  0  0  0  0  0
    5.5700   -2.0227    2.1362 H   0  0  0  0  0  0  0  0  0  0  0  0
    4.8397    0.2693    2.7519 H   0  0  0  0  0  0  0  0  0  0  0  0
    5.9290    0.2533    1.3752 H   0  0  0  0  0  0  0  0  0  0  0  0
    3.9405    0.4481   -0.1762 H   0  0  0  0  0  0  0  0  0  0  0  0
    2.8772    0.5663    1.2434 H   0  0  0  0  0  0  0  0  0  0  0  0
    2.4151    2.5296   -0.1804 H   0  0  0  0  0  0  0  0  0  0  0  0
    3.8067    4.8477    1.0694 H   0  0  0  0  0  0  0  0  0  0  0  0
    2.2016    4.8162    0.2728 H   0  0  0  0  0  0  0  0  0  0  0  0
    4.7027    4.3169   -0.9273 H   0  0  0  0  0  0  0  0  0  0  0  0
  1  2  1  0
  2  3  1  0
  3  4  1  0
  4  5  1  0
  5  6  1  0
  6  7  1  0
  6  8  1  0
  8  9  2  0
  9 10  1  0
 10 11  1  0
 11 12  1  0
 11 13  1  0
 13 14  1  0
 14 15  2  0
 14 16  1  0
 16 17  1  0
 17 18  1  0
 18 19  1  0
 19 20  2  0
 20 21  1  0
 21 22  1  0
 22 23  1  0
 23 24  1  0
 24 25  2  0
 24 26  1  0
 26 27  1  0
 27 28  1  0
 16 10  1  0
  1 29  1  0
  1 30  1  0
  1 31  1  0
  2 32  1  0
  2 33  1  0
  3 34  1  0
  3 35  1  0
  4 36  1  0
  4 37  1  0
  5 38  1  0
  5 39  1  0
  6 40  1  0
  7 41  1  0
  8 42  1  0
  9 43  1  0
 10 44  1  0
 11 45  1  0
 12 46  1  0
 13 47  1  0
 13 48  1  0
 16 49  1  0
 17 50  1  0
 17 51  1  0
 18 52  1  0
 18 53  1  0
 19 54  1  0
 20 55  1  0
 21 56  1  0
 21 57  1  0
 22 58  1  0
 22 59  1  0
 23 60  1  0
 23 61  1  0
 26 62  1  0
 27 63  1  0
 27 64  1  0
 28 65  1  0
M  END
$$$$
