
     RDKit          3D

 32 33  0  0  0  0  0  0  0  0999 V2000
    4.4575   -1.7307   -1.0528 O   0  0  0  0  0  0  0  0  0  0  0  0
    3.5814   -1.4563   -0.0670 C   0  0  0  0  0  0  0  0  0  0  0  0
    2.8213   -2.3150    0.3461 O   0  0  0  0  0  0  0  0  0  0  0  0
    3.7079   -0.0340    0.4140 C   0  0  0  0  0  0  0  0  0  0  0  0
    2.5754    0.3957    1.3487 C   0  0  0  0  0  0  0  0  0  0  0  0
    1.3394    0.9638    0.6375 C   0  0  0  0  0  0  0  0  0  0  0  0
    0.6270   -0.0381   -0.2785 C   0  0  0  0  0  0  0  0  0  0  0  0
   -0.6913    0.5227   -0.8365 C   0  0  0  0  0  0  0  0  0  0  0  0
   -1.2810   -0.5433   -2.1919 S   0  0  0  0  0  0  0  0  0  0  0  0
   -2.1273   -1.6905   -1.0787 C   0  0  0  0  0  0  0  0  0  0  0  0
   -2.5586   -0.8829    0.1469 C   0  0  0  0  0  0  0  0  0  0  0  0
   -3.9586   -0.5154    0.1095 N   0  0  0  0  0  0  0  0  0  0  0  0
   -4.1384    0.8382   -0.0596 C   0  0  0  0  0  0  0  0  0  0  0  0
   -5.2077    1.4136   -0.1221 O   0  0  0  0  0  0  0  0  0  0  0  0
   -2.8971    1.4314   -0.1142 N   0  0  0  0  0  0  0  0  0  0  0  0
   -1.8376    0.4842    0.1806 C   0  0  0  0  0  0  0  0  0  0  0  0
    4.2875   -2.6699   -1.2759 H   0  0  0  0  0  0  0  0  0  0  0  0
    3.7632    0.6370   -0.4500 H   0  0  0  0  0  0  0  0  0  0  0  0
    4.6569    0.0257    0.9597 H   0  0  0  0  0  0  0  0  0  0  0  0
    2.2750   -0.4275    2.0076 H   0  0  0  0  0  0  0  0  0  0  0  0
    2.9625    1.1884    2.0019 H   0  0  0  0  0  0  0  0  0  0  0  0
    1.6311    1.8450    0.0526 H   0  0  0  0  0  0  0  0  0  0  0  0
    0.6482    1.3203    1.4094 H   0  0  0  0  0  0  0  0  0  0  0  0
    1.2996   -0.2760   -1.1114 H   0  0  0  0  0  0  0  0  0  0  0  0
    0.4433   -0.9679    0.2735 H   0  0  0  0  0  0  0  0  0  0  0  0
   -0.5317    1.5327   -1.2295 H   0  0  0  0  0  0  0  0  0  0  0  0
   -2.9636   -2.1803   -1.5862 H   0  0  0  0  0  0  0  0  0  0  0  0
   -1.4062   -2.4608   -0.7866 H   0  0  0  0  0  0  0  0  0  0  0  0
   -2.3934   -1.4594    1.0633 H   0  0  0  0  0  0  0  0  0  0  0  0
   -4.7538   -1.1372    0.1716 H   0  0  0  0  0  0  0  0  0  0  0  0
   -2.8279    2.4397   -0.0782 H   0  0  0  0  0  0  0  0  0  0  0  0
   -1.5030    0.7210    1.1960 H   0  0  0  0  0  0  0  0  0  0  0  0
  1  2  1  0
  2  3  2  0
  2  4  1  0
  4  5  1  0
  5  6  1  0
  6  7  1  0
  7  8  1  0
  8  9  1  0
  9 10  1  0
 10 11  1  0
 11 12  1  0
 12 13  1  0
 13 14  2  0
 13 15  1  0
 15 16  1  0
 16  8  1  0
 16 11  1  0
  1 17  1  0
  4 18  1  0
  4 19  1  0
  5 20  1  0
  5 21  1  0
  6 22  1  0
  6 23  1  0
  7 24  1  0
  7 25  1  0
  8 26  1  0
 10 27  1  0
 10 28  1  0
 11 29  1  0
 12 30  1  0
 15 31  1  0
 16 32  1  0
M  END
$$$$
