
     RDKit          3D

 55 56  0  0  0  0  0  0  0  0999 V2000
   -3.9528   -1.9789   -2.5835 C   0  0  0  0  0  0  0  0  0  0  0  0
   -5.1408   -1.5850   -1.9132 O   0  0  0  0  0  0  0  0  0  0  0  0
   -5.0140   -0.7504   -0.8350 C   0  0  0  0  0  0  0  0  0  0  0  0
   -3.8056   -0.2630   -0.3316 C   0  0  0  0  0  0  0  0  0  0  0  0
   -3.7860    0.6061    0.7716 C   0  0  0  0  0  0  0  0  0  0  0  0
   -4.9890    0.9689    1.3967 C   0  0  0  0  0  0  0  0  0  0  0  0
   -6.2034    0.4876    0.9108 C   0  0  0  0  0  0  0  0  0  0  0  0
   -6.2015   -0.3655   -0.2026 C   0  0  0  0  0  0  0  0  0  0  0  0
   -7.4051   -0.8322   -0.6762 O   0  0  0  0  0  0  0  0  0  0  0  0
   -7.4457    0.7672    1.4239 O   0  0  0  0  0  0  0  0  0  0  0  0
   -7.4925    1.6240    2.5602 C   0  0  0  0  0  0  0  0  0  0  0  0
   -2.4869    1.0796    1.2687 C   0  0  0  0  0  0  0  0  0  0  0  0
   -2.2444    2.3650    1.5664 C   0  0  0  0  0  0  0  0  0  0  0  0
   -0.9567    2.8865    2.0891 C   0  0  0  0  0  0  0  0  0  0  0  0
   -0.9648    3.8821    2.8131 O   0  0  0  0  0  0  0  0  0  0  0  0
    0.3340    2.2109    1.8129 C   0  0  0  0  0  0  0  0  0  0  0  0
    0.7245    1.6775    0.6462 C   0  0  0  0  0  0  0  0  0  0  0  0
   -0.0684    1.7277   -0.4793 O   0  0  0  0  0  0  0  0  0  0  0  0
    2.0488    1.1057    0.4788 C   0  0  0  0  0  0  0  0  0  0  0  0
    2.3844    0.1900   -0.4461 C   0  0  0  0  0  0  0  0  0  0  0  0
    3.7356   -0.3794   -0.5911 C   0  0  0  0  0  0  0  0  0  0  0  0
    4.2059   -0.6638   -1.8864 C   0  0  0  0  0  0  0  0  0  0  0  0
    5.4677   -1.2319   -2.0832 C   0  0  0  0  0  0  0  0  0  0  0  0
    6.2517   -1.5169   -0.9594 C   0  0  0  0  0  0  0  0  0  0  0  0
    7.4974   -2.0749   -1.1249 O   0  0  0  0  0  0  0  0  0  0  0  0
    5.7991   -1.2556    0.3427 C   0  0  0  0  0  0  0  0  0  0  0  0
    4.5347   -0.6939    0.5210 C   0  0  0  0  0  0  0  0  0  0  0  0
    6.6769   -1.5996    1.3408 O   0  0  0  0  0  0  0  0  0  0  0  0
    6.2800   -1.3060    2.6768 C   0  0  0  0  0  0  0  0  0  0  0  0
    6.0164   -1.5332   -3.3023 O   0  0  0  0  0  0  0  0  0  0  0  0
    5.2057   -1.3507   -4.4543 C   0  0  0  0  0  0  0  0  0  0  0  0
   -4.2396   -2.6051   -3.4351 H   0  0  0  0  0  0  0  0  0  0  0  0
   -3.4113   -1.1116   -2.9782 H   0  0  0  0  0  0  0  0  0  0  0  0
   -3.3136   -2.5806   -1.9274 H   0  0  0  0  0  0  0  0  0  0  0  0
   -2.8600   -0.5344   -0.7906 H   0  0  0  0  0  0  0  0  0  0  0  0
   -4.9524    1.6198    2.2639 H   0  0  0  0  0  0  0  0  0  0  0  0
   -8.0795   -0.4421   -0.0891 H   0  0  0  0  0  0  0  0  0  0  0  0
   -8.5421    1.7450    2.8442 H   0  0  0  0  0  0  0  0  0  0  0  0
   -6.9673    1.1793    3.4115 H   0  0  0  0  0  0  0  0  0  0  0  0
   -7.0952    2.6161    2.3227 H   0  0  0  0  0  0  0  0  0  0  0  0
   -1.7128    0.3208    1.3508 H   0  0  0  0  0  0  0  0  0  0  0  0
   -3.0188    3.1221    1.4958 H   0  0  0  0  0  0  0  0  0  0  0  0
    1.0160    2.2559    2.6576 H   0  0  0  0  0  0  0  0  0  0  0  0
    0.5113    1.7285   -1.2603 H   0  0  0  0  0  0  0  0  0  0  0  0
    2.8000    1.4548    1.1871 H   0  0  0  0  0  0  0  0  0  0  0  0
    1.6461   -0.1923   -1.1487 H   0  0  0  0  0  0  0  0  0  0  0  0
    3.5716   -0.4226   -2.7348 H   0  0  0  0  0  0  0  0  0  0  0  0
    7.8509   -2.1870   -0.2225 H   0  0  0  0  0  0  0  0  0  0  0  0
    4.1472   -0.5066    1.5169 H   0  0  0  0  0  0  0  0  0  0  0  0
    5.3868   -1.8771    2.9565 H   0  0  0  0  0  0  0  0  0  0  0  0
    7.0932   -1.6115    3.3430 H   0  0  0  0  0  0  0  0  0  0  0  0
    6.1237   -0.2315    2.8137 H   0  0  0  0  0  0  0  0  0  0  0  0
    4.2976   -1.9618   -4.4009 H   0  0  0  0  0  0  0  0  0  0  0  0
    5.7793   -1.6837   -5.3254 H   0  0  0  0  0  0  0  0  0  0  0  0
    4.9637   -0.2925   -4.6015 H   0  0  0  0  0  0  0  0  0  0  0  0
  1  2  1  0
  2  3  1  0
  3  4  2  0
  4  5  1  0
  5  6  2  0
  6  7  1  0
  7  8  2  0
  8  9  1  0
  7 10  1  0
 10 11  1  0
  5 12  1  0
 12 13  2  0
 13 14  1  0
 14 15  2  0
 14 16  1  0
 16 17  2  0
 17 18  1  0
 17 19  1  0
 19 20  2  0
 20 21  1  0
 21 22  2  0
 22 23  1  0
 23 24  2  0
 24 25  1  0
 24 26  1  0
 26 27  2  0
 26 28  1  0
 28 29  1  0
 23 30  1  0
 30 31  1  0
  8  3  1  0
 27 21  1  0
  1 32  1  0
  1 33  1  0
  1 34  1  0
  4 35  1  0
  6 36  1  0
  9 37  1  0
 11 38  1  0
 11 39  1  0
 11 40  1  0
 12 41  1  0
 13 42  1  0
 16 43  1  0
 18 44  1  0
 19 45  1  0
 20 46  1  0
 22 47  1  0
 25 48  1  0
 27 49  1  0
 29 50  1  0
 29 51  1  0
 29 52  1  0
 31 53  1  0
 31 54  1  0
 31 55  1  0
M  END
$$$$
