
     RDKit          3D

 24 25  0  0  0  0  0  0  0  0999 V2000
    3.3237    0.2436   -0.1736 C   0  0  0  0  0  0  0  0  0  0  0  0
    2.0979   -0.5009   -0.0347 N   0  0  0  0  0  0  0  0  0  0  0  0
    1.9905   -1.8411    0.2276 C   0  0  0  0  0  0  0  0  0  0  0  0
    0.7307   -2.2239    0.2953 N   0  0  0  0  0  0  0  0  0  0  0  0
    0.0180   -1.0856    0.0677 C   0  0  0  0  0  0  0  0  0  0  0  0
    0.8279   -0.0104   -0.1385 C   0  0  0  0  0  0  0  0  0  0  0  0
    0.3357    1.2972   -0.3980 C   0  0  0  0  0  0  0  0  0  0  0  0
    1.0744    2.2598   -0.5825 O   0  0  0  0  0  0  0  0  0  0  0  0
   -1.0610    1.3555   -0.4177 N   0  0  0  0  0  0  0  0  0  0  0  0
   -1.6878    2.6376   -0.6730 C   0  0  0  0  0  0  0  0  0  0  0  0
   -1.9329    0.2661   -0.2091 C   0  0  0  0  0  0  0  0  0  0  0  0
   -3.1577    0.4181   -0.2462 O   0  0  0  0  0  0  0  0  0  0  0  0
   -1.3512   -0.9777    0.0384 N   0  0  0  0  0  0  0  0  0  0  0  0
   -2.1779   -2.1493    0.2635 C   0  0  0  0  0  0  0  0  0  0  0  0
    3.3551    0.6787   -1.1755 H   0  0  0  0  0  0  0  0  0  0  0  0
    3.3447    1.0252    0.5899 H   0  0  0  0  0  0  0  0  0  0  0  0
    4.1754   -0.4277   -0.0368 H   0  0  0  0  0  0  0  0  0  0  0  0
    2.8506   -2.4858    0.3592 H   0  0  0  0  0  0  0  0  0  0  0  0
   -2.3169    2.5545   -1.5654 H   0  0  0  0  0  0  0  0  0  0  0  0
   -0.9605    3.4386   -0.8259 H   0  0  0  0  0  0  0  0  0  0  0  0
   -2.3272    2.8965    0.1774 H   0  0  0  0  0  0  0  0  0  0  0  0
   -1.9487   -2.9003   -0.4993 H   0  0  0  0  0  0  0  0  0  0  0  0
   -3.2438   -1.9128    0.2107 H   0  0  0  0  0  0  0  0  0  0  0  0
   -1.9591   -2.5558    1.2560 H   0  0  0  0  0  0  0  0  0  0  0  0
  1  2  1  0
  2  3  1  0
  3  4  2  0
  4  5  1  0
  5  6  2  0
  6  7  1  0
  7  8  2  0
  7  9  1  0
  9 10  1  0
  9 11  1  0
 11 12  2  0
 11 13  1  0
 13 14  1  0
  6  2  1  0
 13  5  1  0
  1 15  1  0
  1 16  1  0
  1 17  1  0
  3 18  1  0
 10 19  1  0
 10 20  1  0
 10 21  1  0
 14 22  1  0
 14 23  1  0
 14 24  1  0
M  END
$$$$
