
     RDKit          3D

 24 25  0  0  0  0  0  0  0  0999 V2000
    3.2378   -0.5528   -0.5637 C   0  0  0  0  0  0  0  0  0  0  0  0
    2.1377    0.2745   -0.1378 N   0  0  0  0  0  0  0  0  0  0  0  0
    2.2246    1.5613    0.3241 C   0  0  0  0  0  0  0  0  0  0  0  0
    1.0390    2.0474    0.6345 N   0  0  0  0  0  0  0  0  0  0  0  0
    0.1737    1.0321    0.3589 C   0  0  0  0  0  0  0  0  0  0  0  0
    0.8168   -0.0700   -0.1168 C   0  0  0  0  0  0  0  0  0  0  0  0
    0.1442   -1.2678   -0.4808 C   0  0  0  0  0  0  0  0  0  0  0  0
    0.7334   -2.2559   -0.9086 O   0  0  0  0  0  0  0  0  0  0  0  0
   -1.2394   -1.1885   -0.2974 N   0  0  0  0  0  0  0  0  0  0  0  0
   -2.0409   -2.3490   -0.6333 C   0  0  0  0  0  0  0  0  0  0  0  0
   -1.9415   -0.0668    0.1920 C   0  0  0  0  0  0  0  0  0  0  0  0
   -3.1694   -0.0934    0.3193 O   0  0  0  0  0  0  0  0  0  0  0  0
   -1.1901    1.0616    0.5218 N   0  0  0  0  0  0  0  0  0  0  0  0
   -1.8358    2.2571    1.0321 C   0  0  0  0  0  0  0  0  0  0  0  0
    3.0825   -0.8268   -1.6102 H   0  0  0  0  0  0  0  0  0  0  0  0
    3.2699   -1.4426    0.0699 H   0  0  0  0  0  0  0  0  0  0  0  0
    4.1730    0.0043   -0.4639 H   0  0  0  0  0  0  0  0  0  0  0  0
    3.1641    2.0922    0.4139 H   0  0  0  0  0  0  0  0  0  0  0  0
   -2.5855   -2.6754    0.2588 H   0  0  0  0  0  0  0  0  0  0  0  0
   -2.7705   -2.0675   -1.3998 H   0  0  0  0  0  0  0  0  0  0  0  0
   -1.4398   -3.1820   -1.0057 H   0  0  0  0  0  0  0  0  0  0  0  0
   -2.9194    2.1347    1.1081 H   0  0  0  0  0  0  0  0  0  0  0  0
   -1.6253    3.0928    0.3571 H   0  0  0  0  0  0  0  0  0  0  0  0
   -1.4390    2.4805    2.0275 H   0  0  0  0  0  0  0  0  0  0  0  0
  1  2  1  0
  2  3  1  0
  3  4  2  0
  4  5  1  0
  5  6  2  0
  6  7  1  0
  7  8  2  0
  7  9  1  0
  9 10  1  0
  9 11  1  0
 11 12  2  0
 11 13  1  0
 13 14  1  0
  6  2  1  0
 13  5  1  0
  1 15  1  0
  1 16  1  0
  1 17  1  0
  3 18  1  0
 10 19  1  0
 10 20  1  0
 10 21  1  0
 14 22  1  0
 14 23  1  0
 14 24  1  0
M  END
$$$$
