
     RDKit          3D

 24 25  0  0  0  0  0  0  0  0999 V2000
    3.3026    0.2216    0.3883 C   0  0  0  0  0  0  0  0  0  0  0  0
    2.0963   -0.5105    0.0970 N   0  0  0  0  0  0  0  0  0  0  0  0
    2.0134   -1.8413   -0.2172 C   0  0  0  0  0  0  0  0  0  0  0  0
    0.7668   -2.2139   -0.4301 N   0  0  0  0  0  0  0  0  0  0  0  0
    0.0373   -1.0786   -0.2439 C   0  0  0  0  0  0  0  0  0  0  0  0
    0.8239   -0.0154    0.0806 C   0  0  0  0  0  0  0  0  0  0  0  0
    0.3108    1.2867    0.3273 C   0  0  0  0  0  0  0  0  0  0  0  0
    1.0287    2.2385    0.6192 O   0  0  0  0  0  0  0  0  0  0  0  0
   -1.0798    1.3531    0.2004 N   0  0  0  0  0  0  0  0  0  0  0  0
   -1.7264    2.6307    0.4278 C   0  0  0  0  0  0  0  0  0  0  0  0
   -1.9279    0.2762   -0.1335 C   0  0  0  0  0  0  0  0  0  0  0  0
   -3.1492    0.4347   -0.2219 O   0  0  0  0  0  0  0  0  0  0  0  0
   -1.3269   -0.9631   -0.3568 N   0  0  0  0  0  0  0  0  0  0  0  0
   -2.1285   -2.1219   -0.7048 C   0  0  0  0  0  0  0  0  0  0  0  0
    3.2286    0.6255    1.4011 H   0  0  0  0  0  0  0  0  0  0  0  0
    3.4069    1.0262   -0.3438 H   0  0  0  0  0  0  0  0  0  0  0  0
    4.1620   -0.4505    0.3218 H   0  0  0  0  0  0  0  0  0  0  0  0
    2.8806   -2.4870   -0.2769 H   0  0  0  0  0  0  0  0  0  0  0  0
   -2.4470    2.5241    1.2453 H   0  0  0  0  0  0  0  0  0  0  0  0
   -1.0171    3.4220    0.6820 H   0  0  0  0  0  0  0  0  0  0  0  0
   -2.2710    2.9197   -0.4772 H   0  0  0  0  0  0  0  0  0  0  0  0
   -1.9840   -2.8974    0.0541 H   0  0  0  0  0  0  0  0  0  0  0  0
   -3.1933   -1.8804   -0.7581 H   0  0  0  0  0  0  0  0  0  0  0  0
   -1.8067   -2.4990   -1.6808 H   0  0  0  0  0  0  0  0  0  0  0  0
  1  2  1  0
  2  3  1  0
  3  4  2  0
  4  5  1  0
  5  6  2  0
  6  7  1  0
  7  8  2  0
  7  9  1  0
  9 10  1  0
  9 11  1  0
 11 12  2  0
 11 13  1  0
 13 14  1  0
  6  2  1  0
 13  5  1  0
  1 15  1  0
  1 16  1  0
  1 17  1  0
  3 18  1  0
 10 19  1  0
 10 20  1  0
 10 21  1  0
 14 22  1  0
 14 23  1  0
 14 24  1  0
M  END
$$$$
