
     RDKit          3D

 49 49  0  0  0  0  0  0  0  0999 V2000
    7.0915    2.2940    0.4829 C   0  0  0  0  0  0  0  0  0  0  0  0
    6.7240    1.4784   -0.6193 O   0  0  0  0  0  0  0  0  0  0  0  0
    5.7254    0.5607   -0.4244 C   0  0  0  0  0  0  0  0  0  0  0  0
    4.9765    0.4262    0.7497 C   0  0  0  0  0  0  0  0  0  0  0  0
    3.9699   -0.5506    0.8530 C   0  0  0  0  0  0  0  0  0  0  0  0
    3.1442   -0.6749    2.1085 C   0  0  0  0  0  0  0  0  0  0  0  0
    1.8957    0.0397    1.9703 N   0  0  0  0  0  0  0  0  0  0  0  0
    0.7320   -0.6033    1.6064 C   0  0  0  0  0  0  0  0  0  0  0  0
    0.6381   -1.8203    1.4950 O   0  0  0  0  0  0  0  0  0  0  0  0
   -0.4239    0.3575    1.3894 C   0  0  0  0  0  0  0  0  0  0  0  0
   -1.6728   -0.3096    0.8138 C   0  0  0  0  0  0  0  0  0  0  0  0
   -1.5128   -0.6596   -0.6716 C   0  0  0  0  0  0  0  0  0  0  0  0
   -2.7339   -1.3831   -1.2482 C   0  0  0  0  0  0  0  0  0  0  0  0
   -3.9584   -0.5112   -1.3019 C   0  0  0  0  0  0  0  0  0  0  0  0
   -5.0920   -0.7780   -0.6328 C   0  0  0  0  0  0  0  0  0  0  0  0
   -6.3702    0.0324   -0.6281 C   0  0  0  0  0  0  0  0  0  0  0  0
   -6.6544    0.5300    0.7912 C   0  0  0  0  0  0  0  0  0  0  0  0
   -6.4074    1.2082   -1.6079 C   0  0  0  0  0  0  0  0  0  0  0  0
    3.7104   -1.3855   -0.2427 C   0  0  0  0  0  0  0  0  0  0  0  0
    4.4481   -1.2589   -1.4185 C   0  0  0  0  0  0  0  0  0  0  0  0
    5.4477   -0.2905   -1.5031 C   0  0  0  0  0  0  0  0  0  0  0  0
    6.1728   -0.1641   -2.6587 O   0  0  0  0  0  0  0  0  0  0  0  0
    6.2673    2.9518    0.7778 H   0  0  0  0  0  0  0  0  0  0  0  0
    7.4362    1.6883    1.3276 H   0  0  0  0  0  0  0  0  0  0  0  0
    7.9253    2.9283    0.1669 H   0  0  0  0  0  0  0  0  0  0  0  0
    5.1563    1.0736    1.6017 H   0  0  0  0  0  0  0  0  0  0  0  0
    2.9664   -1.7303    2.3438 H   0  0  0  0  0  0  0  0  0  0  0  0
    3.6759   -0.2383    2.9611 H   0  0  0  0  0  0  0  0  0  0  0  0
    1.9428    1.0448    1.8749 H   0  0  0  0  0  0  0  0  0  0  0  0
   -0.6718    0.7869    2.3677 H   0  0  0  0  0  0  0  0  0  0  0  0
   -0.0974    1.1750    0.7363 H   0  0  0  0  0  0  0  0  0  0  0  0
   -2.5136    0.3837    0.9343 H   0  0  0  0  0  0  0  0  0  0  0  0
   -1.9183   -1.2129    1.3851 H   0  0  0  0  0  0  0  0  0  0  0  0
   -0.6389   -1.3075   -0.8069 H   0  0  0  0  0  0  0  0  0  0  0  0
   -1.3166    0.2548   -1.2459 H   0  0  0  0  0  0  0  0  0  0  0  0
   -2.9247   -2.2970   -0.6726 H   0  0  0  0  0  0  0  0  0  0  0  0
   -2.5033   -1.7025   -2.2718 H   0  0  0  0  0  0  0  0  0  0  0  0
   -3.8826    0.3710   -1.9323 H   0  0  0  0  0  0  0  0  0  0  0  0
   -5.1249   -1.6774   -0.0168 H   0  0  0  0  0  0  0  0  0  0  0  0
   -7.1796   -0.6525   -0.9129 H   0  0  0  0  0  0  0  0  0  0  0  0
   -5.8762    1.2207    1.1356 H   0  0  0  0  0  0  0  0  0  0  0  0
   -6.7022   -0.3038    1.5007 H   0  0  0  0  0  0  0  0  0  0  0  0
   -7.6148    1.0552    0.8339 H   0  0  0  0  0  0  0  0  0  0  0  0
   -6.2379    0.8707   -2.6362 H   0  0  0  0  0  0  0  0  0  0  0  0
   -7.3866    1.6992   -1.5815 H   0  0  0  0  0  0  0  0  0  0  0  0
   -5.6517    1.9630   -1.3637 H   0  0  0  0  0  0  0  0  0  0  0  0
    2.9230   -2.1363   -0.1813 H   0  0  0  0  0  0  0  0  0  0  0  0
    4.2284   -1.9170   -2.2532 H   0  0  0  0  0  0  0  0  0  0  0  0
    5.8693   -0.8292   -3.2953 H   0  0  0  0  0  0  0  0  0  0  0  0
  1  2  1  0
  2  3  1  0
  3  4  2  0
  4  5  1  0
  5  6  1  0
  6  7  1  0
  7  8  1  0
  8  9  2  0
  8 10  1  0
 10 11  1  0
 11 12  1  0
 12 13  1  0
 13 14  1  0
 14 15  2  0
 15 16  1  0
 16 17  1  0
 16 18  1  0
  5 19  2  0
 19 20  1  0
 20 21  2  0
 21 22  1  0
 21  3  1  0
  1 23  1  0
  1 24  1  0
  1 25  1  0
  4 26  1  0
  6 27  1  0
  6 28  1  0
  7 29  1  0
 10 30  1  0
 10 31  1  0
 11 32  1  0
 11 33  1  0
 12 34  1  0
 12 35  1  0
 13 36  1  0
 13 37  1  0
 14 38  1  0
 15 39  1  0
 16 40  1  0
 17 41  1  0
 17 42  1  0
 17 43  1  0
 18 44  1  0
 18 45  1  0
 18 46  1  0
 19 47  1  0
 20 48  1  0
 22 49  1  0
M  END
$$$$
