
     RDKit          3D

 51 54  0  0  0  0  0  0  0  0999 V2000
   -5.1444    4.5833   -0.3205 O   0  0  0  0  0  0  0  0  0  0  0  0
   -3.9564    3.9213   -0.2195 C   0  0  0  0  0  0  0  0  0  0  0  0
   -3.6711    2.8191   -1.0149 C   0  0  0  0  0  0  0  0  0  0  0  0
   -2.4426    2.1682   -0.8732 C   0  0  0  0  0  0  0  0  0  0  0  0
   -1.4765    2.6324    0.0338 C   0  0  0  0  0  0  0  0  0  0  0  0
   -0.1378    1.9541    0.1243 C   0  0  0  0  0  0  0  0  0  0  0  0
    0.0783    0.9804   -1.0350 C   0  0  0  0  0  0  0  0  0  0  0  0
    1.1969    0.0998   -0.8143 O   0  0  0  0  0  0  0  0  0  0  0  0
    2.4276    0.6411   -0.9821 C   0  0  0  0  0  0  0  0  0  0  0  0
    2.6563    1.7999   -1.2858 O   0  0  0  0  0  0  0  0  0  0  0  0
    3.4863   -0.3742   -0.7366 C   0  0  0  0  0  0  0  0  0  0  0  0
    3.1865   -1.7100   -0.4194 C   0  0  0  0  0  0  0  0  0  0  0  0
    4.2232   -2.6133   -0.2105 C   0  0  0  0  0  0  0  0  0  0  0  0
    3.9169   -3.9196    0.0372 O   0  0  0  0  0  0  0  0  0  0  0  0
    5.5468   -2.1974   -0.2763 C   0  0  0  0  0  0  0  0  0  0  0  0
    6.5743   -3.0521    0.0127 O   0  0  0  0  0  0  0  0  0  0  0  0
    5.8432   -0.8814   -0.6069 C   0  0  0  0  0  0  0  0  0  0  0  0
    7.1415   -0.4698   -0.6891 O   0  0  0  0  0  0  0  0  0  0  0  0
    4.8258    0.0355   -0.8395 C   0  0  0  0  0  0  0  0  0  0  0  0
   -1.2119    0.1738   -1.2899 C   0  0  0  0  0  0  0  0  0  0  0  0
   -2.2623    1.0811   -1.6932 O   0  0  0  0  0  0  0  0  0  0  0  0
   -1.7485   -0.8032   -0.2380 C   0  0  0  0  0  0  0  0  0  0  0  0
   -3.0604   -1.3122   -0.3916 C   0  0  0  0  0  0  0  0  0  0  0  0
   -3.5829   -2.2220    0.5250 C   0  0  0  0  0  0  0  0  0  0  0  0
   -4.8502   -2.7212    0.4100 O   0  0  0  0  0  0  0  0  0  0  0  0
   -2.8126   -2.6527    1.5939 C   0  0  0  0  0  0  0  0  0  0  0  0
   -3.3112   -3.5481    2.5001 O   0  0  0  0  0  0  0  0  0  0  0  0
   -1.5204   -2.1789    1.7504 C   0  0  0  0  0  0  0  0  0  0  0  0
   -0.7568   -2.6072    2.7980 O   0  0  0  0  0  0  0  0  0  0  0  0
   -0.9830   -1.2676    0.8464 C   0  0  0  0  0  0  0  0  0  0  0  0
   -1.8031    3.7361    0.8347 C   0  0  0  0  0  0  0  0  0  0  0  0
   -0.9543    4.2546    1.7724 O   0  0  0  0  0  0  0  0  0  0  0  0
   -3.0334    4.3791    0.7099 C   0  0  0  0  0  0  0  0  0  0  0  0
   -5.6708    4.1758   -1.0272 H   0  0  0  0  0  0  0  0  0  0  0  0
   -4.3891    2.4490   -1.7391 H   0  0  0  0  0  0  0  0  0  0  0  0
   -0.0512    1.4411    1.0886 H   0  0  0  0  0  0  0  0  0  0  0  0
    0.6582    2.7077    0.1023 H   0  0  0  0  0  0  0  0  0  0  0  0
    0.2668    1.5647   -1.9486 H   0  0  0  0  0  0  0  0  0  0  0  0
    2.1605   -2.0604   -0.3475 H   0  0  0  0  0  0  0  0  0  0  0  0
    4.5474   -4.4591   -0.4746 H   0  0  0  0  0  0  0  0  0  0  0  0
    6.2296   -3.6674    0.6883 H   0  0  0  0  0  0  0  0  0  0  0  0
    7.6778   -1.2655   -0.5017 H   0  0  0  0  0  0  0  0  0  0  0  0
    5.0772    1.0637   -1.0902 H   0  0  0  0  0  0  0  0  0  0  0  0
   -1.0107   -0.4581   -2.1665 H   0  0  0  0  0  0  0  0  0  0  0  0
   -3.6638   -0.9836   -1.2345 H   0  0  0  0  0  0  0  0  0  0  0  0
   -5.2729   -2.2986   -0.3580 H   0  0  0  0  0  0  0  0  0  0  0  0
   -4.2219   -3.7228    2.1849 H   0  0  0  0  0  0  0  0  0  0  0  0
   -1.3381   -3.2247    3.2870 H   0  0  0  0  0  0  0  0  0  0  0  0
    0.0367   -0.9411    1.0172 H   0  0  0  0  0  0  0  0  0  0  0  0
   -0.1530    3.7131    1.8356 H   0  0  0  0  0  0  0  0  0  0  0  0
   -3.2664    5.2372    1.3336 H   0  0  0  0  0  0  0  0  0  0  0  0
  1  2  1  0
  2  3  2  0
  3  4  1  0
  4  5  2  0
  5  6  1  0
  6  7  1  0
  7  8  1  0
  8  9  1  0
  9 10  2  0
  9 11  1  0
 11 12  2  0
 12 13  1  0
 13 14  1  0
 13 15  2  0
 15 16  1  0
 15 17  1  0
 17 18  1  0
 17 19  2  0
  7 20  1  0
 20 21  1  0
 20 22  1  0
 22 23  2  0
 23 24  1  0
 24 25  1  0
 24 26  2  0
 26 27  1  0
 26 28  1  0
 28 29  1  0
 28 30  2  0
  5 31  1  0
 31 32  1  0
 31 33  2  0
 33  2  1  0
 21  4  1  0
 30 22  1  0
 19 11  1  0
  1 34  1  0
  3 35  1  0
  6 36  1  0
  6 37  1  0
  7 38  1  0
 12 39  1  0
 14 40  1  0
 16 41  1  0
 18 42  1  0
 19 43  1  0
 20 44  1  0
 23 45  1  0
 25 46  1  0
 27 47  1  0
 29 48  1  0
 30 49  1  0
 32 50  1  0
 33 51  1  0
M  END
$$$$
