
     RDKit          3D

 52 54  0  0  0  0  0  0  0  0999 V2000
    6.7126   -0.5323    2.0169 O   0  0  0  0  0  0  0  0  0  0  0  0
    7.0230    0.3017    1.0036 C   0  0  0  0  0  0  0  0  0  0  0  0
    7.9563    1.0833    1.1145 O   0  0  0  0  0  0  0  0  0  0  0  0
    6.0865    0.2034   -0.1879 C   0  0  0  0  0  0  0  0  0  0  0  0
    5.7148   -1.1400   -0.4790 O   0  0  0  0  0  0  0  0  0  0  0  0
    4.7537   -1.2289   -1.5303 C   0  0  0  0  0  0  0  0  0  0  0  0
    3.3580   -0.8936   -1.0632 C   0  0  0  0  0  0  0  0  0  0  0  0
    2.8920   -1.3346    0.1817 C   0  0  0  0  0  0  0  0  0  0  0  0
    1.5960   -1.0322    0.6053 C   0  0  0  0  0  0  0  0  0  0  0  0
    0.7304   -0.2878   -0.2101 C   0  0  0  0  0  0  0  0  0  0  0  0
    1.1931    0.1340   -1.4658 C   0  0  0  0  0  0  0  0  0  0  0  0
    2.4910   -0.1672   -1.8880 C   0  0  0  0  0  0  0  0  0  0  0  0
   -0.6918    0.0201    0.2700 C   0  0  0  0  0  0  0  0  0  0  0  0
   -1.6911   -0.9211   -0.4824 C   0  0  0  0  0  0  0  0  0  0  0  0
   -3.1209   -0.7800   -0.1312 N   0  0  0  0  0  0  0  0  0  0  0  0
   -3.9527   -1.6313   -1.0060 C   0  0  0  0  0  0  0  0  0  0  0  0
   -5.4527   -1.5668   -0.6436 C   0  0  0  0  0  0  0  0  0  0  0  0
   -5.7173   -1.9189    0.7619 N   0  0  0  0  0  0  0  0  0  0  0  0
   -4.9029   -1.0426    1.6221 C   0  0  0  0  0  0  0  0  0  0  0  0
   -3.3940   -1.0897    1.2854 C   0  0  0  0  0  0  0  0  0  0  0  0
   -1.0008    1.5212    0.2373 C   0  0  0  0  0  0  0  0  0  0  0  0
   -1.7342    2.0912   -0.8223 C   0  0  0  0  0  0  0  0  0  0  0  0
   -2.0019    3.4621   -0.8698 C   0  0  0  0  0  0  0  0  0  0  0  0
   -1.5384    4.2991    0.1381 C   0  0  0  0  0  0  0  0  0  0  0  0
   -0.8077    3.7634    1.1950 C   0  0  0  0  0  0  0  0  0  0  0  0
   -0.5390    2.3897    1.2472 C   0  0  0  0  0  0  0  0  0  0  0  0
    0.3713    1.8298    2.6090 Cl  0  0  0  0  0  0  0  0  0  0  0  0
    7.3921   -0.3500    2.6970 H   0  0  0  0  0  0  0  0  0  0  0  0
    6.6098    0.6188   -1.0562 H   0  0  0  0  0  0  0  0  0  0  0  0
    5.2082    0.8177    0.0365 H   0  0  0  0  0  0  0  0  0  0  0  0
    4.7530   -2.2651   -1.8868 H   0  0  0  0  0  0  0  0  0  0  0  0
    5.0637   -0.5952   -2.3699 H   0  0  0  0  0  0  0  0  0  0  0  0
    3.5469   -1.9089    0.8355 H   0  0  0  0  0  0  0  0  0  0  0  0
    1.2721   -1.3786    1.5846 H   0  0  0  0  0  0  0  0  0  0  0  0
    0.5485    0.7068   -2.1286 H   0  0  0  0  0  0  0  0  0  0  0  0
    2.8192    0.1762   -2.8666 H   0  0  0  0  0  0  0  0  0  0  0  0
   -0.7541   -0.2879    1.3216 H   0  0  0  0  0  0  0  0  0  0  0  0
   -1.5864   -0.7479   -1.5623 H   0  0  0  0  0  0  0  0  0  0  0  0
   -1.3787   -1.9632   -0.3201 H   0  0  0  0  0  0  0  0  0  0  0  0
   -3.6189   -2.6763   -0.9500 H   0  0  0  0  0  0  0  0  0  0  0  0
   -3.8396   -1.3063   -2.0473 H   0  0  0  0  0  0  0  0  0  0  0  0
   -5.8447   -0.5626   -0.8481 H   0  0  0  0  0  0  0  0  0  0  0  0
   -6.0086   -2.2577   -1.2873 H   0  0  0  0  0  0  0  0  0  0  0  0
   -5.4102   -2.8798    0.9106 H   0  0  0  0  0  0  0  0  0  0  0  0
   -5.2704   -0.0118    1.5414 H   0  0  0  0  0  0  0  0  0  0  0  0
   -5.0476   -1.3458    2.6652 H   0  0  0  0  0  0  0  0  0  0  0  0
   -2.8942   -0.3627    1.9343 H   0  0  0  0  0  0  0  0  0  0  0  0
   -3.0034   -2.0841    1.5391 H   0  0  0  0  0  0  0  0  0  0  0  0
   -2.1189    1.4727   -1.6297 H   0  0  0  0  0  0  0  0  0  0  0  0
   -2.5770    3.8725   -1.6964 H   0  0  0  0  0  0  0  0  0  0  0  0
   -1.7466    5.3650    0.1030 H   0  0  0  0  0  0  0  0  0  0  0  0
   -0.4476    4.4223    1.9813 H   0  0  0  0  0  0  0  0  0  0  0  0
  1  2  1  0
  2  3  2  0
  2  4  1  0
  4  5  1  0
  5  6  1  0
  6  7  1  0
  7  8  2  0
  8  9  1  0
  9 10  2  0
 10 11  1  0
 11 12  2  0
 10 13  1  0
 13 14  1  0
 14 15  1  0
 15 16  1  0
 16 17  1  0
 17 18  1  0
 18 19  1  0
 19 20  1  0
 13 21  1  0
 21 22  2  0
 22 23  1  0
 23 24  2  0
 24 25  1  0
 25 26  2  0
 26 27  1  0
 12  7  1  0
 20 15  1  0
 26 21  1  0
  1 28  1  0
  4 29  1  0
  4 30  1  0
  6 31  1  0
  6 32  1  0
  8 33  1  0
  9 34  1  0
 11 35  1  0
 12 36  1  0
 13 37  1  0
 14 38  1  0
 14 39  1  0
 16 40  1  0
 16 41  1  0
 17 42  1  0
 17 43  1  0
 18 44  1  0
 19 45  1  0
 19 46  1  0
 20 47  1  0
 20 48  1  0
 22 49  1  0
 23 50  1  0
 24 51  1  0
 25 52  1  0
M  END
$$$$
