
     RDKit          3D

 51 54  0  0  0  0  0  0  0  0999 V2000
   -2.4438    0.8900   -1.3262 C   0  0  0  0  0  0  0  0  0  0  0  0
   -2.1237    0.5226    0.1350 C   0  0  0  0  0  0  0  0  0  0  0  0
   -1.0839    1.5372    0.6781 C   0  0  0  0  0  0  0  0  0  0  0  0
    0.3428    1.3006    0.1799 C   0  0  0  0  0  0  0  0  0  0  0  0
    0.8538   -0.1040    0.5443 C   0  0  0  0  0  0  0  0  0  0  0  0
   -0.1122   -1.1905   -0.0217 C   0  0  0  0  0  0  0  0  0  0  0  0
    0.0983   -1.4304   -1.5327 C   0  0  0  0  0  0  0  0  0  0  0  0
    1.5540   -1.7240   -1.8895 C   0  0  0  0  0  0  0  0  0  0  0  0
    2.4426   -0.6266   -1.3586 C   0  0  0  0  0  0  0  0  0  0  0  0
    3.2015    0.0905   -2.2038 C   0  0  0  0  0  0  0  0  0  0  0  0
    3.9489    1.2815   -1.7480 C   0  0  0  0  0  0  0  0  0  0  0  0
    4.7581    1.8153   -2.5017 O   0  0  0  0  0  0  0  0  0  0  0  0
    3.5900    1.8572   -0.4054 C   0  0  0  0  0  0  0  0  0  0  0  0
    3.3278    0.7523    0.6086 C   0  0  0  0  0  0  0  0  0  0  0  0
    2.3560   -0.3779    0.1456 C   0  0  0  0  0  0  0  0  0  0  0  0
    2.8420   -1.6502    0.9021 C   0  0  0  0  0  0  0  0  0  0  0  0
   -1.6030   -0.9246    0.3038 C   0  0  0  0  0  0  0  0  0  0  0  0
   -1.9336   -1.2769    1.7710 C   0  0  0  0  0  0  0  0  0  0  0  0
   -3.0617   -0.3481    2.2232 C   0  0  0  0  0  0  0  0  0  0  0  0
   -3.4243    0.5175    1.0121 C   0  0  0  0  0  0  0  0  0  0  0  0
   -3.6888    1.8482    1.4973 O   0  0  0  0  0  0  0  0  0  0  0  0
   -4.7196    0.0521    0.2719 C   0  0  0  0  0  0  0  0  0  0  0  0
   -5.4915    0.9036   -0.1793 O   0  0  0  0  0  0  0  0  0  0  0  0
   -4.9504   -1.6640    0.1056 Cl  0  0  0  0  0  0  0  0  0  0  0  0
   -3.0348    1.8119   -1.3740 H   0  0  0  0  0  0  0  0  0  0  0  0
   -1.5467    1.0704   -1.9218 H   0  0  0  0  0  0  0  0  0  0  0  0
   -3.0113    0.1005   -1.8298 H   0  0  0  0  0  0  0  0  0  0  0  0
   -1.0586    1.5091    1.7750 H   0  0  0  0  0  0  0  0  0  0  0  0
   -1.3834    2.5595    0.4129 H   0  0  0  0  0  0  0  0  0  0  0  0
    0.9658    2.0593    0.6635 H   0  0  0  0  0  0  0  0  0  0  0  0
    0.4089    1.4764   -0.8984 H   0  0  0  0  0  0  0  0  0  0  0  0
    0.8088   -0.1657    1.6411 H   0  0  0  0  0  0  0  0  0  0  0  0
    0.1349   -2.1433    0.4653 H   0  0  0  0  0  0  0  0  0  0  0  0
   -0.2294   -0.5652   -2.1140 H   0  0  0  0  0  0  0  0  0  0  0  0
   -0.5206   -2.2750   -1.8599 H   0  0  0  0  0  0  0  0  0  0  0  0
    1.6383   -1.8134   -2.9797 H   0  0  0  0  0  0  0  0  0  0  0  0
    1.8601   -2.6937   -1.4827 H   0  0  0  0  0  0  0  0  0  0  0  0
    3.2631   -0.1181   -3.2662 H   0  0  0  0  0  0  0  0  0  0  0  0
    4.4280    2.4708   -0.0555 H   0  0  0  0  0  0  0  0  0  0  0  0
    2.7309    2.5191   -0.5388 H   0  0  0  0  0  0  0  0  0  0  0  0
    4.3093    0.3111    0.8372 H   0  0  0  0  0  0  0  0  0  0  0  0
    2.9827    1.1890    1.5540 H   0  0  0  0  0  0  0  0  0  0  0  0
    3.8647   -1.9179    0.6085 H   0  0  0  0  0  0  0  0  0  0  0  0
    2.2237   -2.5325    0.7184 H   0  0  0  0  0  0  0  0  0  0  0  0
    2.8420   -1.4797    1.9854 H   0  0  0  0  0  0  0  0  0  0  0  0
   -2.1976   -1.5971   -0.3267 H   0  0  0  0  0  0  0  0  0  0  0  0
   -2.2348   -2.3277    1.8506 H   0  0  0  0  0  0  0  0  0  0  0  0
   -1.0718   -1.1482    2.4344 H   0  0  0  0  0  0  0  0  0  0  0  0
   -3.9114   -0.9176    2.6142 H   0  0  0  0  0  0  0  0  0  0  0  0
   -2.7104    0.2694    3.0598 H   0  0  0  0  0  0  0  0  0  0  0  0
   -4.2297    2.2973    0.8157 H   0  0  0  0  0  0  0  0  0  0  0  0
  1  2  1  0
  2  3  1  0
  3  4  1  0
  4  5  1  0
  5  6  1  0
  6  7  1  0
  7  8  1  0
  8  9  1  0
  9 10  2  0
 10 11  1  0
 11 12  2  0
 11 13  1  0
 13 14  1  0
 14 15  1  0
 15 16  1  0
  6 17  1  0
 17 18  1  0
 18 19  1  0
 19 20  1  0
 20 21  1  0
 20 22  1  0
 22 23  2  0
 22 24  1  0
 17  2  1  0
 20  2  1  0
 15  5  1  0
 15  9  1  0
  1 25  1  0
  1 26  1  0
  1 27  1  0
  3 28  1  0
  3 29  1  0
  4 30  1  0
  4 31  1  0
  5 32  1  0
  6 33  1  0
  7 34  1  0
  7 35  1  0
  8 36  1  0
  8 37  1  0
 10 38  1  0
 13 39  1  0
 13 40  1  0
 14 41  1  0
 14 42  1  0
 16 43  1  0
 16 44  1  0
 16 45  1  0
 17 46  1  0
 18 47  1  0
 18 48  1  0
 19 49  1  0
 19 50  1  0
 21 51  1  0
M  END
$$$$
