
     RDKit          3D

 51 54  0  0  0  0  0  0  0  0999 V2000
    2.3523   -1.1452    1.1012 C   0  0  0  0  0  0  0  0  0  0  0  0
    2.2166   -0.1916   -0.1166 C   0  0  0  0  0  0  0  0  0  0  0  0
    1.6408   -0.9773   -1.3067 C   0  0  0  0  0  0  0  0  0  0  0  0
    0.2062   -1.4497   -1.0312 C   0  0  0  0  0  0  0  0  0  0  0  0
   -0.7751   -0.3173   -0.6240 C   0  0  0  0  0  0  0  0  0  0  0  0
   -0.1912    0.7148    0.4090 C   0  0  0  0  0  0  0  0  0  0  0  0
   -0.6002    0.4078    1.8568 C   0  0  0  0  0  0  0  0  0  0  0  0
   -2.1317    0.3863    2.0283 C   0  0  0  0  0  0  0  0  0  0  0  0
   -2.8460    0.1781    0.7104 C   0  0  0  0  0  0  0  0  0  0  0  0
   -3.8925    0.9517    0.3741 C   0  0  0  0  0  0  0  0  0  0  0  0
   -4.4580    0.9277   -0.9946 C   0  0  0  0  0  0  0  0  0  0  0  0
   -5.4745    1.5711   -1.2417 O   0  0  0  0  0  0  0  0  0  0  0  0
   -3.6880    0.1888   -2.0586 C   0  0  0  0  0  0  0  0  0  0  0  0
   -3.0891   -1.0854   -1.4828 C   0  0  0  0  0  0  0  0  0  0  0  0
   -2.2085   -0.8524   -0.2200 C   0  0  0  0  0  0  0  0  0  0  0  0
   -2.1666   -2.2202    0.5109 C   0  0  0  0  0  0  0  0  0  0  0  0
    1.2888    1.0120    0.1282 C   0  0  0  0  0  0  0  0  0  0  0  0
    2.0748    1.8927    1.0922 C   0  0  0  0  0  0  0  0  0  0  0  0
    3.5464    1.7024    0.6782 C   0  0  0  0  0  0  0  0  0  0  0  0
    3.5878    0.5374   -0.3547 C   0  0  0  0  0  0  0  0  0  0  0  0
    4.6805   -0.3166   -0.0094 O   0  0  0  0  0  0  0  0  0  0  0  0
    3.7347    1.1168   -1.8041 C   0  0  0  0  0  0  0  0  0  0  0  0
    3.2817    2.2131   -2.1269 O   0  0  0  0  0  0  0  0  0  0  0  0
    4.5931    0.0510   -2.8919 Cl  0  0  0  0  0  0  0  0  0  0  0  0
    2.7571   -0.6404    1.9841 H   0  0  0  0  0  0  0  0  0  0  0  0
    1.4074   -1.5977    1.4008 H   0  0  0  0  0  0  0  0  0  0  0  0
    3.0251   -1.9783    0.8650 H   0  0  0  0  0  0  0  0  0  0  0  0
    2.2739   -1.8431   -1.5352 H   0  0  0  0  0  0  0  0  0  0  0  0
    1.6157   -0.3586   -2.2113 H   0  0  0  0  0  0  0  0  0  0  0  0
    0.2470   -2.2280   -0.2652 H   0  0  0  0  0  0  0  0  0  0  0  0
   -0.1722   -1.9430   -1.9350 H   0  0  0  0  0  0  0  0  0  0  0  0
   -0.8986    0.2769   -1.5423 H   0  0  0  0  0  0  0  0  0  0  0  0
   -0.6938    1.6722    0.1901 H   0  0  0  0  0  0  0  0  0  0  0  0
   -0.1953    1.1587    2.5441 H   0  0  0  0  0  0  0  0  0  0  0  0
   -0.1954   -0.5509    2.1868 H   0  0  0  0  0  0  0  0  0  0  0  0
   -2.4130   -0.3984    2.7403 H   0  0  0  0  0  0  0  0  0  0  0  0
   -2.4429    1.3370    2.4802 H   0  0  0  0  0  0  0  0  0  0  0  0
   -4.3265    1.6842    1.0455 H   0  0  0  0  0  0  0  0  0  0  0  0
   -4.3766   -0.0712   -2.8701 H   0  0  0  0  0  0  0  0  0  0  0  0
   -2.9210    0.8561   -2.4635 H   0  0  0  0  0  0  0  0  0  0  0  0
   -3.9246   -1.7532   -1.2264 H   0  0  0  0  0  0  0  0  0  0  0  0
   -2.5165   -1.6042   -2.2607 H   0  0  0  0  0  0  0  0  0  0  0  0
   -1.4492   -2.2396    1.3362 H   0  0  0  0  0  0  0  0  0  0  0  0
   -3.1482   -2.4719    0.9322 H   0  0  0  0  0  0  0  0  0  0  0  0
   -1.9003   -3.0326   -0.1754 H   0  0  0  0  0  0  0  0  0  0  0  0
    1.2497    1.5806   -0.8149 H   0  0  0  0  0  0  0  0  0  0  0  0
    1.7717    2.9424    1.0220 H   0  0  0  0  0  0  0  0  0  0  0  0
    1.9497    1.5815    2.1339 H   0  0  0  0  0  0  0  0  0  0  0  0
    3.9467    2.6346    0.2642 H   0  0  0  0  0  0  0  0  0  0  0  0
    4.1506    1.4767    1.5655 H   0  0  0  0  0  0  0  0  0  0  0  0
    5.4971    0.2141   -0.0151 H   0  0  0  0  0  0  0  0  0  0  0  0
  1  2  1  0
  2  3  1  0
  3  4  1  0
  4  5  1  0
  5  6  1  0
  6  7  1  0
  7  8  1  0
  8  9  1  0
  9 10  2  0
 10 11  1  0
 11 12  2  0
 11 13  1  0
 13 14  1  0
 14 15  1  0
 15 16  1  0
  6 17  1  0
 17 18  1  0
 18 19  1  0
 19 20  1  0
 20 21  1  0
 20 22  1  0
 22 23  2  0
 22 24  1  0
 17  2  1  0
 20  2  1  0
 15  5  1  0
 15  9  1  0
  1 25  1  0
  1 26  1  0
  1 27  1  0
  3 28  1  0
  3 29  1  0
  4 30  1  0
  4 31  1  0
  5 32  1  0
  6 33  1  0
  7 34  1  0
  7 35  1  0
  8 36  1  0
  8 37  1  0
 10 38  1  0
 13 39  1  0
 13 40  1  0
 14 41  1  0
 14 42  1  0
 16 43  1  0
 16 44  1  0
 16 45  1  0
 17 46  1  0
 18 47  1  0
 18 48  1  0
 19 49  1  0
 19 50  1  0
 21 51  1  0
M  END
$$$$
