
     RDKit          3D

 51 54  0  0  0  0  0  0  0  0999 V2000
   -2.7526   -0.2520    1.5909 C   0  0  0  0  0  0  0  0  0  0  0  0
   -2.3586    0.1323    0.1518 C   0  0  0  0  0  0  0  0  0  0  0  0
   -1.6746    1.5251    0.1996 C   0  0  0  0  0  0  0  0  0  0  0  0
   -0.2318    1.4930    0.7123 C   0  0  0  0  0  0  0  0  0  0  0  0
    0.6476    0.5784   -0.1603 C   0  0  0  0  0  0  0  0  0  0  0  0
    0.0673   -0.8623   -0.1701 C   0  0  0  0  0  0  0  0  0  0  0  0
    0.3592   -1.6473    1.1332 C   0  0  0  0  0  0  0  0  0  0  0  0
    1.5701   -1.1522    1.9202 C   0  0  0  0  0  0  0  0  0  0  0  0
    2.6142   -0.6308    0.9797 C   0  0  0  0  0  0  0  0  0  0  0  0
    3.7964   -1.2568    0.8464 C   0  0  0  0  0  0  0  0  0  0  0  0
    4.8129   -0.8002   -0.1302 C   0  0  0  0  0  0  0  0  0  0  0  0
    5.9170   -1.3403   -0.1435 O   0  0  0  0  0  0  0  0  0  0  0  0
    4.4709    0.3419   -1.0551 C   0  0  0  0  0  0  0  0  0  0  0  0
    2.9629    0.5206   -1.2031 C   0  0  0  0  0  0  0  0  0  0  0  0
    2.2025    0.5859    0.1546 C   0  0  0  0  0  0  0  0  0  0  0  0
    2.6397    1.8589    0.9125 C   0  0  0  0  0  0  0  0  0  0  0  0
   -1.4373   -0.9149   -0.5298 C   0  0  0  0  0  0  0  0  0  0  0  0
   -1.6718   -0.7066   -2.0418 C   0  0  0  0  0  0  0  0  0  0  0  0
   -2.9958    0.0409   -2.1991 C   0  0  0  0  0  0  0  0  0  0  0  0
   -3.6112    0.1410   -0.7935 C   0  0  0  0  0  0  0  0  0  0  0  0
   -4.2971    1.3910   -0.7209 O   0  0  0  0  0  0  0  0  0  0  0  0
   -4.5586   -1.0926   -0.5848 C   0  0  0  0  0  0  0  0  0  0  0  0
   -4.2827   -2.2198   -0.9891 O   0  0  0  0  0  0  0  0  0  0  0  0
   -5.9982   -0.6970    0.3277 Cl  0  0  0  0  0  0  0  0  0  0  0  0
   -3.0854   -1.2929    1.6587 H   0  0  0  0  0  0  0  0  0  0  0  0
   -3.5645    0.3862    1.9571 H   0  0  0  0  0  0  0  0  0  0  0  0
   -1.9261   -0.1329    2.2960 H   0  0  0  0  0  0  0  0  0  0  0  0
   -1.6611    1.9814   -0.7981 H   0  0  0  0  0  0  0  0  0  0  0  0
   -2.2579    2.2086    0.8302 H   0  0  0  0  0  0  0  0  0  0  0  0
    0.1401    2.5229    0.6736 H   0  0  0  0  0  0  0  0  0  0  0  0
   -0.2057    1.1890    1.7625 H   0  0  0  0  0  0  0  0  0  0  0  0
    0.5407    0.9803   -1.1780 H   0  0  0  0  0  0  0  0  0  0  0  0
    0.5979   -1.4095   -0.9640 H   0  0  0  0  0  0  0  0  0  0  0  0
   -0.5009   -1.6680    1.8060 H   0  0  0  0  0  0  0  0  0  0  0  0
    0.5227   -2.6984    0.8569 H   0  0  0  0  0  0  0  0  0  0  0  0
    1.2761   -0.3564    2.6141 H   0  0  0  0  0  0  0  0  0  0  0  0
    1.9518   -1.9674    2.5468 H   0  0  0  0  0  0  0  0  0  0  0  0
    4.0700   -2.1288    1.4304 H   0  0  0  0  0  0  0  0  0  0  0  0
    4.9008    0.1267   -2.0398 H   0  0  0  0  0  0  0  0  0  0  0  0
    4.9445    1.2514   -0.6723 H   0  0  0  0  0  0  0  0  0  0  0  0
    2.5763   -0.3179   -1.7992 H   0  0  0  0  0  0  0  0  0  0  0  0
    2.7701    1.4284   -1.7891 H   0  0  0  0  0  0  0  0  0  0  0  0
    2.4305    2.7589    0.3237 H   0  0  0  0  0  0  0  0  0  0  0  0
    2.1306    1.9537    1.8781 H   0  0  0  0  0  0  0  0  0  0  0  0
    3.7122    1.8604    1.1367 H   0  0  0  0  0  0  0  0  0  0  0  0
   -1.8007   -1.9242   -0.2914 H   0  0  0  0  0  0  0  0  0  0  0  0
   -1.7111   -1.6767   -2.5510 H   0  0  0  0  0  0  0  0  0  0  0  0
   -0.8701   -0.1352   -2.5207 H   0  0  0  0  0  0  0  0  0  0  0  0
   -2.8111    1.0357   -2.6238 H   0  0  0  0  0  0  0  0  0  0  0  0
   -3.6529   -0.4718   -2.9111 H   0  0  0  0  0  0  0  0  0  0  0  0
   -4.7070    1.4604    0.1601 H   0  0  0  0  0  0  0  0  0  0  0  0
  1  2  1  0
  2  3  1  0
  3  4  1  0
  4  5  1  0
  5  6  1  0
  6  7  1  0
  7  8  1  0
  8  9  1  0
  9 10  2  0
 10 11  1  0
 11 12  2  0
 11 13  1  0
 13 14  1  0
 14 15  1  0
 15 16  1  0
  6 17  1  0
 17 18  1  0
 18 19  1  0
 19 20  1  0
 20 21  1  0
 20 22  1  0
 22 23  2  0
 22 24  1  0
 17  2  1  0
 20  2  1  0
 15  5  1  0
 15  9  1  0
  1 25  1  0
  1 26  1  0
  1 27  1  0
  3 28  1  0
  3 29  1  0
  4 30  1  0
  4 31  1  0
  5 32  1  0
  6 33  1  0
  7 34  1  0
  7 35  1  0
  8 36  1  0
  8 37  1  0
 10 38  1  0
 13 39  1  0
 13 40  1  0
 14 41  1  0
 14 42  1  0
 16 43  1  0
 16 44  1  0
 16 45  1  0
 17 46  1  0
 18 47  1  0
 18 48  1  0
 19 49  1  0
 19 50  1  0
 21 51  1  0
M  END
$$$$
