
     RDKit          3D

 55 56  0  0  0  0  0  0  0  0999 V2000
   -4.2618    3.4090    2.2663 C   0  0  0  0  0  0  0  0  0  0  0  0
   -5.3270    2.4735    2.1781 O   0  0  0  0  0  0  0  0  0  0  0  0
   -5.1116    1.3616    1.4023 C   0  0  0  0  0  0  0  0  0  0  0  0
   -4.0036    1.1301    0.5887 C   0  0  0  0  0  0  0  0  0  0  0  0
   -3.9007   -0.0543   -0.1603 C   0  0  0  0  0  0  0  0  0  0  0  0
   -4.9203   -1.0140   -0.0673 C   0  0  0  0  0  0  0  0  0  0  0  0
   -6.0507   -0.7903    0.7304 C   0  0  0  0  0  0  0  0  0  0  0  0
   -6.1259    0.3980    1.4612 C   0  0  0  0  0  0  0  0  0  0  0  0
   -7.2176    0.6343    2.2663 O   0  0  0  0  0  0  0  0  0  0  0  0
   -7.0952   -1.6658    0.8770 O   0  0  0  0  0  0  0  0  0  0  0  0
   -7.1703   -2.7501   -0.0367 C   0  0  0  0  0  0  0  0  0  0  0  0
   -2.6883   -0.2654   -0.9712 C   0  0  0  0  0  0  0  0  0  0  0  0
   -2.6287   -1.0296   -2.0712 C   0  0  0  0  0  0  0  0  0  0  0  0
   -1.4209   -1.2186   -2.9175 C   0  0  0  0  0  0  0  0  0  0  0  0
   -1.5625   -1.5158   -4.1037 O   0  0  0  0  0  0  0  0  0  0  0  0
   -0.0531   -1.0038   -2.3879 C   0  0  0  0  0  0  0  0  0  0  0  0
    0.4121   -1.4277   -1.2051 C   0  0  0  0  0  0  0  0  0  0  0  0
   -0.3597   -2.1455   -0.3219 O   0  0  0  0  0  0  0  0  0  0  0  0
    1.7867   -1.2366   -0.7898 C   0  0  0  0  0  0  0  0  0  0  0  0
    2.4177   -0.0548   -0.8231 C   0  0  0  0  0  0  0  0  0  0  0  0
    3.8108    0.1349   -0.3945 C   0  0  0  0  0  0  0  0  0  0  0  0
    4.1312    1.2658    0.3752 C   0  0  0  0  0  0  0  0  0  0  0  0
    5.4466    1.5014    0.7810 C   0  0  0  0  0  0  0  0  0  0  0  0
    6.4378    0.5929    0.3943 C   0  0  0  0  0  0  0  0  0  0  0  0
    7.7401    0.8041    0.7792 O   0  0  0  0  0  0  0  0  0  0  0  0
    6.1417   -0.5340   -0.3875 C   0  0  0  0  0  0  0  0  0  0  0  0
    4.8237   -0.7565   -0.7822 C   0  0  0  0  0  0  0  0  0  0  0  0
    7.2208   -1.3245   -0.6936 O   0  0  0  0  0  0  0  0  0  0  0  0
    6.9716   -2.4658   -1.5070 C   0  0  0  0  0  0  0  0  0  0  0  0
    5.8624    2.5623    1.5382 O   0  0  0  0  0  0  0  0  0  0  0  0
    4.8876    3.5293    1.9086 C   0  0  0  0  0  0  0  0  0  0  0  0
   -3.3520    2.9380    2.6574 H   0  0  0  0  0  0  0  0  0  0  0  0
   -4.0762    3.8836    1.2957 H   0  0  0  0  0  0  0  0  0  0  0  0
   -4.5638    4.1903    2.9688 H   0  0  0  0  0  0  0  0  0  0  0  0
   -3.2079    1.8615    0.5158 H   0  0  0  0  0  0  0  0  0  0  0  0
   -4.8155   -1.9456   -0.6096 H   0  0  0  0  0  0  0  0  0  0  0  0
   -7.0632    1.5114    2.6616 H   0  0  0  0  0  0  0  0  0  0  0  0
   -8.1278   -3.2591    0.1206 H   0  0  0  0  0  0  0  0  0  0  0  0
   -7.1404   -2.3959   -1.0742 H   0  0  0  0  0  0  0  0  0  0  0  0
   -6.3713   -3.4743    0.1591 H   0  0  0  0  0  0  0  0  0  0  0  0
   -1.8064    0.2649   -0.6304 H   0  0  0  0  0  0  0  0  0  0  0  0
   -3.5084   -1.5204   -2.4748 H   0  0  0  0  0  0  0  0  0  0  0  0
    0.6127   -0.5426   -3.1147 H   0  0  0  0  0  0  0  0  0  0  0  0
    0.1309   -2.2510    0.5125 H   0  0  0  0  0  0  0  0  0  0  0  0
    2.2959   -2.1244   -0.4222 H   0  0  0  0  0  0  0  0  0  0  0  0
    1.9009    0.8418   -1.1528 H   0  0  0  0  0  0  0  0  0  0  0  0
    3.3344    1.9458    0.6549 H   0  0  0  0  0  0  0  0  0  0  0  0
    8.2442    0.0588    0.3989 H   0  0  0  0  0  0  0  0  0  0  0  0
    4.5631   -1.6093   -1.4002 H   0  0  0  0  0  0  0  0  0  0  0  0
    6.5737   -2.1742   -2.4847 H   0  0  0  0  0  0  0  0  0  0  0  0
    6.3010   -3.1660   -0.9994 H   0  0  0  0  0  0  0  0  0  0  0  0
    7.9278   -2.9750   -1.6720 H   0  0  0  0  0  0  0  0  0  0  0  0
    4.1182    3.0859    2.5496 H   0  0  0  0  0  0  0  0  0  0  0  0
    4.4445    4.0037    1.0252 H   0  0  0  0  0  0  0  0  0  0  0  0
    5.3925    4.3081    2.4878 H   0  0  0  0  0  0  0  0  0  0  0  0
  1  2  1  0
  2  3  1  0
  3  4  2  0
  4  5  1  0
  5  6  2  0
  6  7  1  0
  7  8  2  0
  8  9  1  0
  7 10  1  0
 10 11  1  0
  5 12  1  0
 12 13  2  0
 13 14  1  0
 14 15  2  0
 14 16  1  0
 16 17  2  0
 17 18  1  0
 17 19  1  0
 19 20  2  0
 20 21  1  0
 21 22  2  0
 22 23  1  0
 23 24  2  0
 24 25  1  0
 24 26  1  0
 26 27  2  0
 26 28  1  0
 28 29  1  0
 23 30  1  0
 30 31  1  0
  8  3  1  0
 27 21  1  0
  1 32  1  0
  1 33  1  0
  1 34  1  0
  4 35  1  0
  6 36  1  0
  9 37  1  0
 11 38  1  0
 11 39  1  0
 11 40  1  0
 12 41  1  0
 13 42  1  0
 16 43  1  0
 18 44  1  0
 19 45  1  0
 20 46  1  0
 22 47  1  0
 25 48  1  0
 27 49  1  0
 29 50  1  0
 29 51  1  0
 29 52  1  0
 31 53  1  0
 31 54  1  0
 31 55  1  0
M  END
$$$$
