
     RDKit          3D

 55 56  0  0  0  0  0  0  0  0999 V2000
    7.6540    2.5524    0.3383 C   0  0  0  0  0  0  0  0  0  0  0  0
    7.5064    1.2274   -0.1608 O   0  0  0  0  0  0  0  0  0  0  0  0
    6.2338    0.7133   -0.1830 C   0  0  0  0  0  0  0  0  0  0  0  0
    5.0762    1.3715    0.2290 C   0  0  0  0  0  0  0  0  0  0  0  0
    3.8329    0.7260    0.1489 C   0  0  0  0  0  0  0  0  0  0  0  0
    3.7537   -0.5795   -0.3638 C   0  0  0  0  0  0  0  0  0  0  0  0
    4.9045   -1.2556   -0.7760 C   0  0  0  0  0  0  0  0  0  0  0  0
    6.1342   -0.5950   -0.6796 C   0  0  0  0  0  0  0  0  0  0  0  0
    7.2823   -1.2368   -1.0818 O   0  0  0  0  0  0  0  0  0  0  0  0
    4.9338   -2.5296   -1.2791 O   0  0  0  0  0  0  0  0  0  0  0  0
    3.7060   -3.2399   -1.3396 C   0  0  0  0  0  0  0  0  0  0  0  0
    2.5881    1.3986    0.5441 C   0  0  0  0  0  0  0  0  0  0  0  0
    2.4485    2.0550    1.7049 C   0  0  0  0  0  0  0  0  0  0  0  0
    1.2162    2.7630    2.1332 C   0  0  0  0  0  0  0  0  0  0  0  0
    1.3139    3.7306    2.8877 O   0  0  0  0  0  0  0  0  0  0  0  0
   -0.1243    2.3765    1.6312 C   0  0  0  0  0  0  0  0  0  0  0  0
   -0.5881    1.1287    1.4696 C   0  0  0  0  0  0  0  0  0  0  0  0
    0.1683    0.0243    1.7944 O   0  0  0  0  0  0  0  0  0  0  0  0
   -1.9504    0.8738    1.0354 C   0  0  0  0  0  0  0  0  0  0  0  0
   -2.3707   -0.2524    0.4330 C   0  0  0  0  0  0  0  0  0  0  0  0
   -3.7579   -0.4888   -0.0021 C   0  0  0  0  0  0  0  0  0  0  0  0
   -4.5442    0.5269   -0.5689 C   0  0  0  0  0  0  0  0  0  0  0  0
   -5.8470    0.2570   -0.9888 C   0  0  0  0  0  0  0  0  0  0  0  0
   -6.3509   -1.0446   -0.8562 C   0  0  0  0  0  0  0  0  0  0  0  0
   -7.6340   -1.3017   -1.2784 O   0  0  0  0  0  0  0  0  0  0  0  0
   -5.5805   -2.0797   -0.3154 C   0  0  0  0  0  0  0  0  0  0  0  0
   -4.2804   -1.7900    0.1082 C   0  0  0  0  0  0  0  0  0  0  0  0
   -6.1790   -3.3094   -0.2400 O   0  0  0  0  0  0  0  0  0  0  0  0
   -5.3808   -4.4057    0.1858 C   0  0  0  0  0  0  0  0  0  0  0  0
   -6.7174    1.1591   -1.5474 O   0  0  0  0  0  0  0  0  0  0  0  0
   -6.2843    2.5145   -1.6150 C   0  0  0  0  0  0  0  0  0  0  0  0
    7.3473    2.6141    1.3876 H   0  0  0  0  0  0  0  0  0  0  0  0
    7.1054    3.2721   -0.2786 H   0  0  0  0  0  0  0  0  0  0  0  0
    8.7154    2.8122    0.2855 H   0  0  0  0  0  0  0  0  0  0  0  0
    5.1141    2.3891    0.6033 H   0  0  0  0  0  0  0  0  0  0  0  0
    2.7781   -1.0520   -0.4223 H   0  0  0  0  0  0  0  0  0  0  0  0
    8.0011   -0.5958   -0.9279 H   0  0  0  0  0  0  0  0  0  0  0  0
    3.9162   -4.2399   -1.7325 H   0  0  0  0  0  0  0  0  0  0  0  0
    3.0028   -2.7531   -2.0238 H   0  0  0  0  0  0  0  0  0  0  0  0
    3.2679   -3.3612   -0.3428 H   0  0  0  0  0  0  0  0  0  0  0  0
    1.7648    1.3072   -0.1589 H   0  0  0  0  0  0  0  0  0  0  0  0
    3.2743    2.1643    2.4012 H   0  0  0  0  0  0  0  0  0  0  0  0
   -0.7716    3.2334    1.4699 H   0  0  0  0  0  0  0  0  0  0  0  0
   -0.4356   -0.6946    2.0475 H   0  0  0  0  0  0  0  0  0  0  0  0
   -2.6558    1.6863    1.2098 H   0  0  0  0  0  0  0  0  0  0  0  0
   -1.6786   -1.0667    0.2260 H   0  0  0  0  0  0  0  0  0  0  0  0
   -4.1190    1.5178   -0.6871 H   0  0  0  0  0  0  0  0  0  0  0  0
   -7.9640   -0.4531   -1.6299 H   0  0  0  0  0  0  0  0  0  0  0  0
   -3.6568   -2.5661    0.5410 H   0  0  0  0  0  0  0  0  0  0  0  0
   -4.5195   -4.5484   -0.4765 H   0  0  0  0  0  0  0  0  0  0  0  0
   -5.9955   -5.3097    0.1330 H   0  0  0  0  0  0  0  0  0  0  0  0
   -5.0640   -4.2811    1.2265 H   0  0  0  0  0  0  0  0  0  0  0  0
   -7.1030    3.1078   -2.0349 H   0  0  0  0  0  0  0  0  0  0  0  0
   -5.4217    2.6186   -2.2826 H   0  0  0  0  0  0  0  0  0  0  0  0
   -6.0650    2.9091   -0.6176 H   0  0  0  0  0  0  0  0  0  0  0  0
  1  2  1  0
  2  3  1  0
  3  4  2  0
  4  5  1  0
  5  6  2  0
  6  7  1  0
  7  8  2  0
  8  9  1  0
  7 10  1  0
 10 11  1  0
  5 12  1  0
 12 13  2  0
 13 14  1  0
 14 15  2  0
 14 16  1  0
 16 17  2  0
 17 18  1  0
 17 19  1  0
 19 20  2  0
 20 21  1  0
 21 22  2  0
 22 23  1  0
 23 24  2  0
 24 25  1  0
 24 26  1  0
 26 27  2  0
 26 28  1  0
 28 29  1  0
 23 30  1  0
 30 31  1  0
  8  3  1  0
 27 21  1  0
  1 32  1  0
  1 33  1  0
  1 34  1  0
  4 35  1  0
  6 36  1  0
  9 37  1  0
 11 38  1  0
 11 39  1  0
 11 40  1  0
 12 41  1  0
 13 42  1  0
 16 43  1  0
 18 44  1  0
 19 45  1  0
 20 46  1  0
 22 47  1  0
 25 48  1  0
 27 49  1  0
 29 50  1  0
 29 51  1  0
 29 52  1  0
 31 53  1  0
 31 54  1  0
 31 55  1  0
M  END
$$$$
