
     RDKit          3D

 55 56  0  0  0  0  0  0  0  0999 V2000
   -7.7191   -2.4016   -0.5205 C   0  0  0  0  0  0  0  0  0  0  0  0
   -7.6032   -0.9834   -0.5384 O   0  0  0  0  0  0  0  0  0  0  0  0
   -6.3565   -0.4626   -0.2947 C   0  0  0  0  0  0  0  0  0  0  0  0
   -5.2008   -1.1941   -0.0301 C   0  0  0  0  0  0  0  0  0  0  0  0
   -3.9872   -0.5296    0.2095 C   0  0  0  0  0  0  0  0  0  0  0  0
   -3.9319    0.8726    0.1656 C   0  0  0  0  0  0  0  0  0  0  0  0
   -5.0829    1.6204   -0.0933 C   0  0  0  0  0  0  0  0  0  0  0  0
   -6.2837    0.9380   -0.3227 C   0  0  0  0  0  0  0  0  0  0  0  0
   -7.4311    1.6512   -0.5797 O   0  0  0  0  0  0  0  0  0  0  0  0
   -5.1389    2.9873   -0.1486 O   0  0  0  0  0  0  0  0  0  0  0  0
   -3.9691    3.7051    0.2099 C   0  0  0  0  0  0  0  0  0  0  0  0
   -2.7564   -1.2795    0.4847 C   0  0  0  0  0  0  0  0  0  0  0  0
   -2.6744   -2.1558    1.4952 C   0  0  0  0  0  0  0  0  0  0  0  0
   -1.4839   -2.9816    1.8221 C   0  0  0  0  0  0  0  0  0  0  0  0
   -1.6364   -4.0393    2.4330 O   0  0  0  0  0  0  0  0  0  0  0  0
   -0.1253   -2.5988    1.3742 C   0  0  0  0  0  0  0  0  0  0  0  0
    0.4251   -1.3820    1.4803 C   0  0  0  0  0  0  0  0  0  0  0  0
   -0.2526   -0.3266    2.0480 O   0  0  0  0  0  0  0  0  0  0  0  0
    1.8020   -1.1356    1.0894 C   0  0  0  0  0  0  0  0  0  0  0  0
    2.3341    0.0682    0.8145 C   0  0  0  0  0  0  0  0  0  0  0  0
    3.7341    0.2511    0.4016 C   0  0  0  0  0  0  0  0  0  0  0  0
    4.7843   -0.4207    1.0429 C   0  0  0  0  0  0  0  0  0  0  0  0
    6.1118   -0.2407    0.6405 C   0  0  0  0  0  0  0  0  0  0  0  0
    6.3858    0.6665   -0.3838 C   0  0  0  0  0  0  0  0  0  0  0  0
    7.6749    0.9222   -0.7833 O   0  0  0  0  0  0  0  0  0  0  0  0
    5.3500    1.3711   -1.0210 C   0  0  0  0  0  0  0  0  0  0  0  0
    4.0276    1.1570   -0.6275 C   0  0  0  0  0  0  0  0  0  0  0  0
    5.7654    2.2353   -2.0043 O   0  0  0  0  0  0  0  0  0  0  0  0
    4.7599    3.0030   -2.6556 C   0  0  0  0  0  0  0  0  0  0  0  0
    7.0187   -0.9712    1.3598 O   0  0  0  0  0  0  0  0  0  0  0  0
    8.1735   -1.3996    0.6428 C   0  0  0  0  0  0  0  0  0  0  0  0
   -7.1113   -2.8563   -1.3081 H   0  0  0  0  0  0  0  0  0  0  0  0
   -8.7650   -2.6525   -0.7200 H   0  0  0  0  0  0  0  0  0  0  0  0
   -7.4618   -2.8066    0.4636 H   0  0  0  0  0  0  0  0  0  0  0  0
   -5.2151   -2.2793   -0.0100 H   0  0  0  0  0  0  0  0  0  0  0  0
   -2.9773    1.3584    0.3476 H   0  0  0  0  0  0  0  0  0  0  0  0
   -8.1278    0.9806   -0.6998 H   0  0  0  0  0  0  0  0  0  0  0  0
   -3.1616    3.5244   -0.5065 H   0  0  0  0  0  0  0  0  0  0  0  0
   -4.2098    4.7706    0.1771 H   0  0  0  0  0  0  0  0  0  0  0  0
   -3.6507    3.4676    1.2293 H   0  0  0  0  0  0  0  0  0  0  0  0
   -1.9139   -1.0633   -0.1639 H   0  0  0  0  0  0  0  0  0  0  0  0
   -3.5323   -2.3721    2.1253 H   0  0  0  0  0  0  0  0  0  0  0  0
    0.4570   -3.4453    1.0238 H   0  0  0  0  0  0  0  0  0  0  0  0
    0.4004    0.2509    2.4821 H   0  0  0  0  0  0  0  0  0  0  0  0
    2.4215   -2.0257    0.9766 H   0  0  0  0  0  0  0  0  0  0  0  0
    1.7315    0.9731    0.8389 H   0  0  0  0  0  0  0  0  0  0  0  0
    4.5815   -1.1059    1.8650 H   0  0  0  0  0  0  0  0  0  0  0  0
    7.5982    1.6075   -1.4751 H   0  0  0  0  0  0  0  0  0  0  0  0
    3.2075    1.6773   -1.1115 H   0  0  0  0  0  0  0  0  0  0  0  0
    4.1983    3.6133   -1.9394 H   0  0  0  0  0  0  0  0  0  0  0  0
    4.0918    2.3596   -3.2397 H   0  0  0  0  0  0  0  0  0  0  0  0
    5.2604    3.6875   -3.3507 H   0  0  0  0  0  0  0  0  0  0  0  0
    8.5671   -2.2826    1.1556 H   0  0  0  0  0  0  0  0  0  0  0  0
    8.9542   -0.6309    0.6666 H   0  0  0  0  0  0  0  0  0  0  0  0
    7.9431   -1.6964   -0.3868 H   0  0  0  0  0  0  0  0  0  0  0  0
  1  2  1  0
  2  3  1  0
  3  4  2  0
  4  5  1  0
  5  6  2  0
  6  7  1  0
  7  8  2  0
  8  9  1  0
  7 10  1  0
 10 11  1  0
  5 12  1  0
 12 13  2  0
 13 14  1  0
 14 15  2  0
 14 16  1  0
 16 17  2  0
 17 18  1  0
 17 19  1  0
 19 20  2  0
 20 21  1  0
 21 22  2  0
 22 23  1  0
 23 24  2  0
 24 25  1  0
 24 26  1  0
 26 27  2  0
 26 28  1  0
 28 29  1  0
 23 30  1  0
 30 31  1  0
  8  3  1  0
 27 21  1  0
  1 32  1  0
  1 33  1  0
  1 34  1  0
  4 35  1  0
  6 36  1  0
  9 37  1  0
 11 38  1  0
 11 39  1  0
 11 40  1  0
 12 41  1  0
 13 42  1  0
 16 43  1  0
 18 44  1  0
 19 45  1  0
 20 46  1  0
 22 47  1  0
 25 48  1  0
 27 49  1  0
 29 50  1  0
 29 51  1  0
 29 52  1  0
 31 53  1  0
 31 54  1  0
 31 55  1  0
M  END
$$$$
