
     RDKit          3D

 55 56  0  0  0  0  0  0  0  0999 V2000
   -5.2116    3.4920    2.3302 C   0  0  0  0  0  0  0  0  0  0  0  0
   -6.2711    2.6431    1.9114 O   0  0  0  0  0  0  0  0  0  0  0  0
   -5.9408    1.4551    1.3187 C   0  0  0  0  0  0  0  0  0  0  0  0
   -4.6386    0.9928    1.1126 C   0  0  0  0  0  0  0  0  0  0  0  0
   -4.4047   -0.2498    0.4978 C   0  0  0  0  0  0  0  0  0  0  0  0
   -5.4923   -1.0248    0.0637 C   0  0  0  0  0  0  0  0  0  0  0  0
   -6.7984   -0.5801    0.2656 C   0  0  0  0  0  0  0  0  0  0  0  0
   -7.0073    0.6560    0.8917 C   0  0  0  0  0  0  0  0  0  0  0  0
   -8.2984    1.0871    1.0833 O   0  0  0  0  0  0  0  0  0  0  0  0
   -7.9428   -1.2425   -0.1042 O   0  0  0  0  0  0  0  0  0  0  0  0
   -7.7805   -2.5263   -0.6970 C   0  0  0  0  0  0  0  0  0  0  0  0
   -3.0116   -0.6731    0.2737 C   0  0  0  0  0  0  0  0  0  0  0  0
   -2.5935   -1.9387    0.4323 C   0  0  0  0  0  0  0  0  0  0  0  0
   -1.2140   -2.4363    0.1954 C   0  0  0  0  0  0  0  0  0  0  0  0
   -1.0289   -3.6343   -0.0111 O   0  0  0  0  0  0  0  0  0  0  0  0
   -0.0807   -1.4803    0.2331 C   0  0  0  0  0  0  0  0  0  0  0  0
    1.1628   -1.8550   -0.1131 C   0  0  0  0  0  0  0  0  0  0  0  0
    1.4881   -3.1311   -0.5246 O   0  0  0  0  0  0  0  0  0  0  0  0
    2.2787   -0.9267   -0.0767 C   0  0  0  0  0  0  0  0  0  0  0  0
    3.5410   -1.2321   -0.4228 C   0  0  0  0  0  0  0  0  0  0  0  0
    4.6546   -0.2746   -0.3633 C   0  0  0  0  0  0  0  0  0  0  0  0
    4.5311    1.0309   -0.8720 C   0  0  0  0  0  0  0  0  0  0  0  0
    5.6085    1.9191   -0.8252 C   0  0  0  0  0  0  0  0  0  0  0  0
    6.8144    1.4753   -0.2679 C   0  0  0  0  0  0  0  0  0  0  0  0
    7.8898    2.3302   -0.2052 O   0  0  0  0  0  0  0  0  0  0  0  0
    6.9639    0.1724    0.2293 C   0  0  0  0  0  0  0  0  0  0  0  0
    5.8798   -0.7018    0.1711 C   0  0  0  0  0  0  0  0  0  0  0  0
    8.2071   -0.1156    0.7410 O   0  0  0  0  0  0  0  0  0  0  0  0
    8.3946   -1.4236    1.2701 C   0  0  0  0  0  0  0  0  0  0  0  0
    5.5896    3.2066   -1.2891 O   0  0  0  0  0  0  0  0  0  0  0  0
    4.3826    3.6789   -1.8685 C   0  0  0  0  0  0  0  0  0  0  0  0
   -5.6553    4.3976    2.7547 H   0  0  0  0  0  0  0  0  0  0  0  0
   -4.6117    3.0173    3.1133 H   0  0  0  0  0  0  0  0  0  0  0  0
   -4.5882    3.7951    1.4817 H   0  0  0  0  0  0  0  0  0  0  0  0
   -3.7861    1.5837    1.4323 H   0  0  0  0  0  0  0  0  0  0  0  0
   -5.3004   -1.9655   -0.4409 H   0  0  0  0  0  0  0  0  0  0  0  0
   -8.8631    0.3828    0.7140 H   0  0  0  0  0  0  0  0  0  0  0  0
   -8.7776   -2.9286   -0.9025 H   0  0  0  0  0  0  0  0  0  0  0  0
   -7.2773   -3.2167   -0.0119 H   0  0  0  0  0  0  0  0  0  0  0  0
   -7.2479   -2.4544   -1.6509 H   0  0  0  0  0  0  0  0  0  0  0  0
   -2.3393    0.1199   -0.0408 H   0  0  0  0  0  0  0  0  0  0  0  0
   -3.2818   -2.7295    0.7197 H   0  0  0  0  0  0  0  0  0  0  0  0
   -0.2767   -0.4699    0.5646 H   0  0  0  0  0  0  0  0  0  0  0  0
    0.6824   -3.6899   -0.4550 H   0  0  0  0  0  0  0  0  0  0  0  0
    2.0557    0.0795    0.2735 H   0  0  0  0  0  0  0  0  0  0  0  0
    3.7970   -2.2387   -0.7489 H   0  0  0  0  0  0  0  0  0  0  0  0
    3.5854    1.3289   -1.3148 H   0  0  0  0  0  0  0  0  0  0  0  0
    8.6103    1.8061    0.1964 H   0  0  0  0  0  0  0  0  0  0  0  0
    5.9565   -1.7191    0.5436 H   0  0  0  0  0  0  0  0  0  0  0  0
    7.7186   -1.6123    2.1109 H   0  0  0  0  0  0  0  0  0  0  0  0
    8.2813   -2.1849    0.4925 H   0  0  0  0  0  0  0  0  0  0  0  0
    9.4172   -1.4848    1.6478 H   0  0  0  0  0  0  0  0  0  0  0  0
    4.5466    4.7121   -2.1878 H   0  0  0  0  0  0  0  0  0  0  0  0
    3.5676    3.6809   -1.1371 H   0  0  0  0  0  0  0  0  0  0  0  0
    4.1154    3.0973   -2.7569 H   0  0  0  0  0  0  0  0  0  0  0  0
  1  2  1  0
  2  3  1  0
  3  4  2  0
  4  5  1  0
  5  6  2  0
  6  7  1  0
  7  8  2  0
  8  9  1  0
  7 10  1  0
 10 11  1  0
  5 12  1  0
 12 13  2  0
 13 14  1  0
 14 15  2  0
 14 16  1  0
 16 17  2  0
 17 18  1  0
 17 19  1  0
 19 20  2  0
 20 21  1  0
 21 22  2  0
 22 23  1  0
 23 24  2  0
 24 25  1  0
 24 26  1  0
 26 27  2  0
 26 28  1  0
 28 29  1  0
 23 30  1  0
 30 31  1  0
  8  3  1  0
 27 21  1  0
  1 32  1  0
  1 33  1  0
  1 34  1  0
  4 35  1  0
  6 36  1  0
  9 37  1  0
 11 38  1  0
 11 39  1  0
 11 40  1  0
 12 41  1  0
 13 42  1  0
 16 43  1  0
 18 44  1  0
 19 45  1  0
 20 46  1  0
 22 47  1  0
 25 48  1  0
 27 49  1  0
 29 50  1  0
 29 51  1  0
 29 52  1  0
 31 53  1  0
 31 54  1  0
 31 55  1  0
M  END
$$$$
