
     RDKit          3D

 55 56  0  0  0  0  0  0  0  0999 V2000
    8.2210    2.7960   -0.7219 C   0  0  0  0  0  0  0  0  0  0  0  0
    8.0226    1.9545    0.4046 O   0  0  0  0  0  0  0  0  0  0  0  0
    6.8636    1.2265    0.4546 C   0  0  0  0  0  0  0  0  0  0  0  0
    5.8628    1.2372   -0.5202 C   0  0  0  0  0  0  0  0  0  0  0  0
    4.7034    0.4580   -0.3698 C   0  0  0  0  0  0  0  0  0  0  0  0
    4.5592   -0.3645    0.7587 C   0  0  0  0  0  0  0  0  0  0  0  0
    5.5493   -0.3894    1.7400 C   0  0  0  0  0  0  0  0  0  0  0  0
    6.6890    0.4115    1.5786 C   0  0  0  0  0  0  0  0  0  0  0  0
    7.6578    0.3828    2.5542 O   0  0  0  0  0  0  0  0  0  0  0  0
    5.5284   -1.1414    2.8887 O   0  0  0  0  0  0  0  0  0  0  0  0
    4.4222   -2.0192    3.0593 C   0  0  0  0  0  0  0  0  0  0  0  0
    3.6919    0.4912   -1.4356 C   0  0  0  0  0  0  0  0  0  0  0  0
    2.3704    0.5189   -1.2038 C   0  0  0  0  0  0  0  0  0  0  0  0
    1.4253    0.5791   -2.3469 C   0  0  0  0  0  0  0  0  0  0  0  0
    1.8081    0.7651   -3.4997 O   0  0  0  0  0  0  0  0  0  0  0  0
   -0.0334    0.4784   -2.0848 C   0  0  0  0  0  0  0  0  0  0  0  0
   -0.6590   -0.1524   -1.0800 C   0  0  0  0  0  0  0  0  0  0  0  0
    0.0255   -0.8748   -0.1282 O   0  0  0  0  0  0  0  0  0  0  0  0
   -2.1099   -0.1867   -0.9993 C   0  0  0  0  0  0  0  0  0  0  0  0
   -2.8258   -0.4305    0.1119 C   0  0  0  0  0  0  0  0  0  0  0  0
   -4.2968   -0.4390    0.1368 C   0  0  0  0  0  0  0  0  0  0  0  0
   -5.0468    0.5848   -0.4639 C   0  0  0  0  0  0  0  0  0  0  0  0
   -6.4392    0.5639   -0.4011 C   0  0  0  0  0  0  0  0  0  0  0  0
   -7.0745   -0.4866    0.2764 C   0  0  0  0  0  0  0  0  0  0  0  0
   -8.4482   -0.4990    0.3329 O   0  0  0  0  0  0  0  0  0  0  0  0
   -6.3485   -1.5101    0.8956 C   0  0  0  0  0  0  0  0  0  0  0  0
   -4.9536   -1.4733    0.8241 C   0  0  0  0  0  0  0  0  0  0  0  0
   -7.0811   -2.4766    1.5309 O   0  0  0  0  0  0  0  0  0  0  0  0
   -6.3732   -3.5243    2.1764 C   0  0  0  0  0  0  0  0  0  0  0  0
   -7.2860    1.4965   -0.9460 O   0  0  0  0  0  0  0  0  0  0  0  0
   -6.6838    2.5882   -1.6317 C   0  0  0  0  0  0  0  0  0  0  0  0
    7.4485    3.5705   -0.7774 H   0  0  0  0  0  0  0  0  0  0  0  0
    9.1858    3.2974   -0.5989 H   0  0  0  0  0  0  0  0  0  0  0  0
    8.2653    2.2133   -1.6481 H   0  0  0  0  0  0  0  0  0  0  0  0
    5.9580    1.8549   -1.4081 H   0  0  0  0  0  0  0  0  0  0  0  0
    3.6719   -0.9827    0.8451 H   0  0  0  0  0  0  0  0  0  0  0  0
    7.3277   -0.2448    3.2239 H   0  0  0  0  0  0  0  0  0  0  0  0
    4.5660   -2.5584    4.0006 H   0  0  0  0  0  0  0  0  0  0  0  0
    3.4836   -1.4610    3.1357 H   0  0  0  0  0  0  0  0  0  0  0  0
    4.3782   -2.7606    2.2545 H   0  0  0  0  0  0  0  0  0  0  0  0
    4.0733    0.5200   -2.4555 H   0  0  0  0  0  0  0  0  0  0  0  0
    1.9652    0.5318   -0.2009 H   0  0  0  0  0  0  0  0  0  0  0  0
   -0.6136    0.9632   -2.8663 H   0  0  0  0  0  0  0  0  0  0  0  0
   -0.5640   -1.5759    0.2002 H   0  0  0  0  0  0  0  0  0  0  0  0
   -2.6348    0.0296   -1.9302 H   0  0  0  0  0  0  0  0  0  0  0  0
   -2.3471   -0.6252    1.0684 H   0  0  0  0  0  0  0  0  0  0  0  0
   -4.5237    1.3934   -0.9633 H   0  0  0  0  0  0  0  0  0  0  0  0
   -8.7327    0.2994   -0.1494 H   0  0  0  0  0  0  0  0  0  0  0  0
   -4.3546   -2.2484    1.2912 H   0  0  0  0  0  0  0  0  0  0  0  0
   -7.1085   -4.1971    2.6279 H   0  0  0  0  0  0  0  0  0  0  0  0
   -5.7397   -3.1362    2.9807 H   0  0  0  0  0  0  0  0  0  0  0  0
   -5.7875   -4.1066    1.4575 H   0  0  0  0  0  0  0  0  0  0  0  0
   -6.1106    2.2416   -2.4979 H   0  0  0  0  0  0  0  0  0  0  0  0
   -7.4863    3.2344   -2.0001 H   0  0  0  0  0  0  0  0  0  0  0  0
   -6.0610    3.1828   -0.9556 H   0  0  0  0  0  0  0  0  0  0  0  0
  1  2  1  0
  2  3  1  0
  3  4  2  0
  4  5  1  0
  5  6  2  0
  6  7  1  0
  7  8  2  0
  8  9  1  0
  7 10  1  0
 10 11  1  0
  5 12  1  0
 12 13  2  0
 13 14  1  0
 14 15  2  0
 14 16  1  0
 16 17  2  0
 17 18  1  0
 17 19  1  0
 19 20  2  0
 20 21  1  0
 21 22  2  0
 22 23  1  0
 23 24  2  0
 24 25  1  0
 24 26  1  0
 26 27  2  0
 26 28  1  0
 28 29  1  0
 23 30  1  0
 30 31  1  0
  8  3  1  0
 27 21  1  0
  1 32  1  0
  1 33  1  0
  1 34  1  0
  4 35  1  0
  6 36  1  0
  9 37  1  0
 11 38  1  0
 11 39  1  0
 11 40  1  0
 12 41  1  0
 13 42  1  0
 16 43  1  0
 18 44  1  0
 19 45  1  0
 20 46  1  0
 22 47  1  0
 25 48  1  0
 27 49  1  0
 29 50  1  0
 29 51  1  0
 29 52  1  0
 31 53  1  0
 31 54  1  0
 31 55  1  0
M  END
$$$$
