
     RDKit          3D

 69 73  0  0  0  0  0  0  0  0999 V2000
   -5.5460    2.3300    2.2200 C   0  0  0  0  0  0  0  0  0  0  0  0
   -5.1178    1.6337    0.9655 C   0  0  0  0  0  0  0  0  0  0  0  0
   -5.3655    2.0258   -0.1635 O   0  0  0  0  0  0  0  0  0  0  0  0
   -4.4284    0.5025    1.2716 O   0  0  0  0  0  0  0  0  0  0  0  0
   -3.8738   -0.2665    0.1859 C   0  0  0  0  0  0  0  0  0  0  0  0
   -2.9858   -1.3588    0.8322 C   0  0  0  0  0  0  0  0  0  0  0  0
   -3.7148   -2.5861    1.3678 C   0  0  0  0  0  0  0  0  0  0  0  0
   -1.9223   -1.7160   -0.2244 C   0  0  0  0  0  0  0  0  0  0  0  0
   -0.5155   -1.8936    0.3810 C   0  0  0  0  0  0  0  0  0  0  0  0
    0.1604   -0.5525    0.1027 C   0  0  0  0  0  0  0  0  0  0  0  0
    1.6827   -0.4699    0.3461 C   0  0  0  0  0  0  0  0  0  0  0  0
    1.8980    0.0189    1.7982 C   0  0  0  0  0  0  0  0  0  0  0  0
    3.2671    0.5166    2.1066 C   0  0  0  0  0  0  0  0  0  0  0  0
    4.1806    0.8394    1.1795 C   0  0  0  0  0  0  0  0  0  0  0  0
    5.5873    1.2184    1.5848 C   0  0  0  0  0  0  0  0  0  0  0  0
    6.5828    0.4091    0.7708 C   0  0  0  0  0  0  0  0  0  0  0  0
    7.7849    0.6783    0.7811 O   0  0  0  0  0  0  0  0  0  0  0  0
    6.0554   -0.7934    0.0198 C   0  0  0  0  0  0  0  0  0  0  0  0
    4.7868   -0.5019   -0.7931 C   0  0  0  0  0  0  0  0  0  0  0  0
    3.9237    0.7159   -0.3149 C   0  0  0  0  0  0  0  0  0  0  0  0
    4.4276    1.9774   -1.0622 C   0  0  0  0  0  0  0  0  0  0  0  0
    2.4057    0.4420   -0.6858 C   0  0  0  0  0  0  0  0  0  0  0  0
    1.5242    1.6726   -1.0321 C   0  0  0  0  0  0  0  0  0  0  0  0
    0.0651    1.3388   -1.4790 C   0  0  0  0  0  0  0  0  0  0  0  0
   -0.2539    1.9303   -3.1408 Cl  0  0  0  0  0  0  0  0  0  0  0  0
   -0.3275   -0.1509   -1.3036 C   0  0  0  0  0  0  0  0  0  0  0  0
    0.2187   -1.0492   -2.4559 C   0  0  0  0  0  0  0  0  0  0  0  0
   -1.8447   -0.4874   -1.1782 C   0  0  0  0  0  0  0  0  0  0  0  0
   -2.7960    0.5491   -0.5628 C   0  0  0  0  0  0  0  0  0  0  0  0
   -4.9408   -0.8772   -0.7682 C   0  0  0  0  0  0  0  0  0  0  0  0
   -6.3356   -1.0896   -0.2288 C   0  0  0  0  0  0  0  0  0  0  0  0
   -4.6784   -1.2197   -1.9231 O   0  0  0  0  0  0  0  0  0  0  0  0
   -4.6666    2.6228    2.7983 H   0  0  0  0  0  0  0  0  0  0  0  0
   -6.1044    3.2342    1.9589 H   0  0  0  0  0  0  0  0  0  0  0  0
   -6.1976    1.6759    2.8051 H   0  0  0  0  0  0  0  0  0  0  0  0
   -2.4886   -0.9046    1.7027 H   0  0  0  0  0  0  0  0  0  0  0  0
   -3.0078   -3.2709    1.8478 H   0  0  0  0  0  0  0  0  0  0  0  0
   -4.2209   -3.1424    0.5730 H   0  0  0  0  0  0  0  0  0  0  0  0
   -4.4587   -2.3001    2.1175 H   0  0  0  0  0  0  0  0  0  0  0  0
   -2.2065   -2.6161   -0.7828 H   0  0  0  0  0  0  0  0  0  0  0  0
    0.0108   -2.7157   -0.1155 H   0  0  0  0  0  0  0  0  0  0  0  0
   -0.5382   -2.1282    1.4502 H   0  0  0  0  0  0  0  0  0  0  0  0
   -0.3122    0.1553    0.8015 H   0  0  0  0  0  0  0  0  0  0  0  0
    2.1150   -1.4761    0.2626 H   0  0  0  0  0  0  0  0  0  0  0  0
    1.2099    0.8376    2.0459 H   0  0  0  0  0  0  0  0  0  0  0  0
    1.6587   -0.8061    2.4814 H   0  0  0  0  0  0  0  0  0  0  0  0
    3.5114    0.6041    3.1644 H   0  0  0  0  0  0  0  0  0  0  0  0
    5.7610    2.2839    1.4024 H   0  0  0  0  0  0  0  0  0  0  0  0
    5.7738    1.0059    2.6434 H   0  0  0  0  0  0  0  0  0  0  0  0
    6.8383   -1.1775   -0.6440 H   0  0  0  0  0  0  0  0  0  0  0  0
    5.8521   -1.5733    0.7645 H   0  0  0  0  0  0  0  0  0  0  0  0
    5.0693   -0.3538   -1.8443 H   0  0  0  0  0  0  0  0  0  0  0  0
    4.1911   -1.4239   -0.7915 H   0  0  0  0  0  0  0  0  0  0  0  0
    3.9734    2.8905   -0.6605 H   0  0  0  0  0  0  0  0  0  0  0  0
    5.5133    2.1041   -0.9973 H   0  0  0  0  0  0  0  0  0  0  0  0
    4.1966    1.9172   -2.1322 H   0  0  0  0  0  0  0  0  0  0  0  0
    2.4808   -0.1187   -1.6193 H   0  0  0  0  0  0  0  0  0  0  0  0
    2.0035    2.2762   -1.8105 H   0  0  0  0  0  0  0  0  0  0  0  0
    1.4707    2.3186   -0.1444 H   0  0  0  0  0  0  0  0  0  0  0  0
   -0.5788    1.9691   -0.8587 H   0  0  0  0  0  0  0  0  0  0  0  0
    0.3536   -2.0914   -2.1536 H   0  0  0  0  0  0  0  0  0  0  0  0
   -0.4714   -1.0543   -3.3091 H   0  0  0  0  0  0  0  0  0  0  0  0
    1.1665   -0.7071   -2.8743 H   0  0  0  0  0  0  0  0  0  0  0  0
   -2.2531   -0.7616   -2.1581 H   0  0  0  0  0  0  0  0  0  0  0  0
   -3.2195    1.1869   -1.3458 H   0  0  0  0  0  0  0  0  0  0  0  0
   -2.2856    1.2082    0.1479 H   0  0  0  0  0  0  0  0  0  0  0  0
   -6.3094   -1.3307    0.8362 H   0  0  0  0  0  0  0  0  0  0  0  0
   -6.9363   -0.1925   -0.3932 H   0  0  0  0  0  0  0  0  0  0  0  0
   -6.7987   -1.9318   -0.7517 H   0  0  0  0  0  0  0  0  0  0  0  0
  1  2  1  0
  2  3  2  0
  2  4  1  0
  4  5  1  0
  5  6  1  0
  6  7  1  0
  6  8  1  0
  8  9  1  0
  9 10  1  0
 10 11  1  0
 11 12  1  0
 12 13  1  0
 13 14  2  0
 14 15  1  0
 15 16  1  0
 16 17  2  0
 16 18  1  0
 18 19  1  0
 19 20  1  0
 20 21  1  0
 20 22  1  0
 22 23  1  0
 23 24  1  0
 24 25  1  0
 24 26  1  0
 26 27  1  0
 26 28  1  0
 28 29  1  0
  5 30  1  0
 30 31  1  0
 30 32  2  0
 29  5  1  0
 28  8  1  0
 26 10  1  0
 22 11  1  0
 20 14  1  0
  1 33  1  0
  1 34  1  0
  1 35  1  0
  6 36  1  0
  7 37  1  0
  7 38  1  0
  7 39  1  0
  8 40  1  0
  9 41  1  0
  9 42  1  0
 10 43  1  0
 11 44  1  0
 12 45  1  0
 12 46  1  0
 13 47  1  0
 15 48  1  0
 15 49  1  0
 18 50  1  0
 18 51  1  0
 19 52  1  0
 19 53  1  0
 21 54  1  0
 21 55  1  0
 21 56  1  0
 22 57  1  0
 23 58  1  0
 23 59  1  0
 24 60  1  0
 27 61  1  0
 27 62  1  0
 27 63  1  0
 28 64  1  0
 29 65  1  0
 29 66  1  0
 31 67  1  0
 31 68  1  0
 31 69  1  0
M  END
$$$$
