
     RDKit          3D

 69 73  0  0  0  0  0  0  0  0999 V2000
   -7.0224    0.0056    1.4649 C   0  0  0  0  0  0  0  0  0  0  0  0
   -5.9516    0.6525    0.6417 C   0  0  0  0  0  0  0  0  0  0  0  0
   -5.9101    1.8444    0.3793 O   0  0  0  0  0  0  0  0  0  0  0  0
   -5.0698   -0.2814    0.1954 O   0  0  0  0  0  0  0  0  0  0  0  0
   -3.9530    0.1672   -0.6008 C   0  0  0  0  0  0  0  0  0  0  0  0
   -3.0832   -1.1354   -0.8774 C   0  0  0  0  0  0  0  0  0  0  0  0
   -3.2894   -1.8447   -2.2090 C   0  0  0  0  0  0  0  0  0  0  0  0
   -1.6649   -0.6143   -0.7015 C   0  0  0  0  0  0  0  0  0  0  0  0
   -0.4655   -1.4966   -0.4170 C   0  0  0  0  0  0  0  0  0  0  0  0
    0.2942   -0.7995    0.7604 C   0  0  0  0  0  0  0  0  0  0  0  0
    1.8280   -0.8141    0.5899 C   0  0  0  0  0  0  0  0  0  0  0  0
    2.5294   -0.8903    1.9624 C   0  0  0  0  0  0  0  0  0  0  0  0
    4.0146   -0.7445    1.8730 C   0  0  0  0  0  0  0  0  0  0  0  0
    4.6623   -0.2500    0.8041 C   0  0  0  0  0  0  0  0  0  0  0  0
    6.1662   -0.3464    0.7080 C   0  0  0  0  0  0  0  0  0  0  0  0
    6.5093   -1.2268   -0.4826 C   0  0  0  0  0  0  0  0  0  0  0  0
    7.4407   -2.0335   -0.4359 O   0  0  0  0  0  0  0  0  0  0  0  0
    5.7658   -0.9739   -1.7805 C   0  0  0  0  0  0  0  0  0  0  0  0
    4.2684   -0.7338   -1.5622 C   0  0  0  0  0  0  0  0  0  0  0  0
    3.9409    0.2879   -0.4308 C   0  0  0  0  0  0  0  0  0  0  0  0
    4.4968    1.6751   -0.8356 C   0  0  0  0  0  0  0  0  0  0  0  0
    2.3677    0.3702   -0.2434 C   0  0  0  0  0  0  0  0  0  0  0  0
    1.8406    1.6934    0.3689 C   0  0  0  0  0  0  0  0  0  0  0  0
    0.3055    1.7977    0.2956 C   0  0  0  0  0  0  0  0  0  0  0  0
   -0.1142    2.1227   -1.4156 Cl  0  0  0  0  0  0  0  0  0  0  0  0
   -0.4052    0.5944    0.9913 C   0  0  0  0  0  0  0  0  0  0  0  0
   -0.4594    0.9330    2.5045 C   0  0  0  0  0  0  0  0  0  0  0  0
   -1.8274    0.1956    0.5684 C   0  0  0  0  0  0  0  0  0  0  0  0
   -3.0033    1.0986    0.2597 C   0  0  0  0  0  0  0  0  0  0  0  0
   -4.3463    0.8535   -1.9395 C   0  0  0  0  0  0  0  0  0  0  0  0
   -5.6931    0.5267   -2.5393 C   0  0  0  0  0  0  0  0  0  0  0  0
   -3.5816    1.6115   -2.5407 O   0  0  0  0  0  0  0  0  0  0  0  0
   -7.4888    0.7606    2.1049 H   0  0  0  0  0  0  0  0  0  0  0  0
   -7.7757   -0.4350    0.8071 H   0  0  0  0  0  0  0  0  0  0  0  0
   -6.5891   -0.7608    2.1137 H   0  0  0  0  0  0  0  0  0  0  0  0
   -3.2991   -1.8761   -0.0931 H   0  0  0  0  0  0  0  0  0  0  0  0
   -4.3249   -2.1814   -2.3150 H   0  0  0  0  0  0  0  0  0  0  0  0
   -3.0411   -1.2054   -3.0622 H   0  0  0  0  0  0  0  0  0  0  0  0
   -2.6475   -2.7303   -2.2701 H   0  0  0  0  0  0  0  0  0  0  0  0
   -1.4340   -0.0084   -1.5797 H   0  0  0  0  0  0  0  0  0  0  0  0
   -0.7681   -2.5087   -0.1251 H   0  0  0  0  0  0  0  0  0  0  0  0
    0.1600   -1.5883   -1.3117 H   0  0  0  0  0  0  0  0  0  0  0  0
    0.0692   -1.4338    1.6322 H   0  0  0  0  0  0  0  0  0  0  0  0
    2.0834   -1.7458    0.0666 H   0  0  0  0  0  0  0  0  0  0  0  0
    2.1565   -0.1399    2.6630 H   0  0  0  0  0  0  0  0  0  0  0  0
    2.3068   -1.8672    2.4105 H   0  0  0  0  0  0  0  0  0  0  0  0
    4.5776   -1.1317    2.7208 H   0  0  0  0  0  0  0  0  0  0  0  0
    6.5969   -0.8042    1.6061 H   0  0  0  0  0  0  0  0  0  0  0  0
    6.6304    0.6352    0.5811 H   0  0  0  0  0  0  0  0  0  0  0  0
    6.2354   -0.1224   -2.2823 H   0  0  0  0  0  0  0  0  0  0  0  0
    5.8953   -1.8470   -2.4303 H   0  0  0  0  0  0  0  0  0  0  0  0
    3.8261   -0.3989   -2.5094 H   0  0  0  0  0  0  0  0  0  0  0  0
    3.8063   -1.7032   -1.3350 H   0  0  0  0  0  0  0  0  0  0  0  0
    3.9351    2.0863   -1.6820 H   0  0  0  0  0  0  0  0  0  0  0  0
    4.4465    2.3860   -0.0030 H   0  0  0  0  0  0  0  0  0  0  0  0
    5.5450    1.6476   -1.1459 H   0  0  0  0  0  0  0  0  0  0  0  0
    1.9387    0.2862   -1.2506 H   0  0  0  0  0  0  0  0  0  0  0  0
    2.1775    1.7972    1.4060 H   0  0  0  0  0  0  0  0  0  0  0  0
    2.2516    2.5620   -0.1567 H   0  0  0  0  0  0  0  0  0  0  0  0
    0.0056    2.7219    0.8028 H   0  0  0  0  0  0  0  0  0  0  0  0
   -1.1496    1.7659    2.6863 H   0  0  0  0  0  0  0  0  0  0  0  0
    0.5139    1.2310    2.9011 H   0  0  0  0  0  0  0  0  0  0  0  0
   -0.8105    0.0843    3.1024 H   0  0  0  0  0  0  0  0  0  0  0  0
   -2.1969   -0.4840    1.3588 H   0  0  0  0  0  0  0  0  0  0  0  0
   -3.4662    1.4332    1.1933 H   0  0  0  0  0  0  0  0  0  0  0  0
   -2.6946    1.9908   -0.2885 H   0  0  0  0  0  0  0  0  0  0  0  0
   -6.4352    1.2522   -2.1998 H   0  0  0  0  0  0  0  0  0  0  0  0
   -5.6189    0.5703   -3.6299 H   0  0  0  0  0  0  0  0  0  0  0  0
   -6.0076   -0.4829   -2.2669 H   0  0  0  0  0  0  0  0  0  0  0  0
  1  2  1  0
  2  3  2  0
  2  4  1  0
  4  5  1  0
  5  6  1  0
  6  7  1  0
  6  8  1  0
  8  9  1  0
  9 10  1  0
 10 11  1  0
 11 12  1  0
 12 13  1  0
 13 14  2  0
 14 15  1  0
 15 16  1  0
 16 17  2  0
 16 18  1  0
 18 19  1  0
 19 20  1  0
 20 21  1  0
 20 22  1  0
 22 23  1  0
 23 24  1  0
 24 25  1  0
 24 26  1  0
 26 27  1  0
 26 28  1  0
 28 29  1  0
  5 30  1  0
 30 31  1  0
 30 32  2  0
 29  5  1  0
 28  8  1  0
 26 10  1  0
 22 11  1  0
 20 14  1  0
  1 33  1  0
  1 34  1  0
  1 35  1  0
  6 36  1  0
  7 37  1  0
  7 38  1  0
  7 39  1  0
  8 40  1  0
  9 41  1  0
  9 42  1  0
 10 43  1  0
 11 44  1  0
 12 45  1  0
 12 46  1  0
 13 47  1  0
 15 48  1  0
 15 49  1  0
 18 50  1  0
 18 51  1  0
 19 52  1  0
 19 53  1  0
 21 54  1  0
 21 55  1  0
 21 56  1  0
 22 57  1  0
 23 58  1  0
 23 59  1  0
 24 60  1  0
 27 61  1  0
 27 62  1  0
 27 63  1  0
 28 64  1  0
 29 65  1  0
 29 66  1  0
 31 67  1  0
 31 68  1  0
 31 69  1  0
M  END
$$$$
