
     RDKit          3D

 57 60  0  0  0  0  0  0  0  0999 V2000
    3.8097   -1.6462    2.1565 C   0  0  0  0  0  0  0  0  0  0  0  0
    2.9187   -1.5253    0.9241 C   0  0  0  0  0  0  0  0  0  0  0  0
    1.4310   -1.8414    1.2229 C   0  0  0  0  0  0  0  0  0  0  0  0
    0.6648   -0.6164    0.7294 C   0  0  0  0  0  0  0  0  0  0  0  0
   -0.8609   -0.6647    0.5386 C   0  0  0  0  0  0  0  0  0  0  0  0
   -1.4962   -2.0166    0.2161 C   0  0  0  0  0  0  0  0  0  0  0  0
   -3.0211   -1.9220    0.3542 C   0  0  0  0  0  0  0  0  0  0  0  0
   -3.5999   -0.7715   -0.4414 C   0  0  0  0  0  0  0  0  0  0  0  0
   -4.5722   -1.0203   -1.3383 C   0  0  0  0  0  0  0  0  0  0  0  0
   -5.1185    0.0288   -2.2205 C   0  0  0  0  0  0  0  0  0  0  0  0
   -6.0165   -0.2115   -3.0173 O   0  0  0  0  0  0  0  0  0  0  0  0
   -4.5368    1.3763   -2.1022 C   0  0  0  0  0  0  0  0  0  0  0  0
   -3.5691    1.6348   -1.2129 C   0  0  0  0  0  0  0  0  0  0  0  0
   -2.9606    0.6271   -0.2374 C   0  0  0  0  0  0  0  0  0  0  0  0
   -3.3205    1.1650    1.1655 C   0  0  0  0  0  0  0  0  0  0  0  0
   -1.4002    0.4433   -0.4332 C   0  0  0  0  0  0  0  0  0  0  0  0
   -1.2569   -0.0072   -1.7304 F   0  0  0  0  0  0  0  0  0  0  0  0
   -0.4617    1.6773   -0.3438 C   0  0  0  0  0  0  0  0  0  0  0  0
   -0.8970    2.7765   -1.1437 O   0  0  0  0  0  0  0  0  0  0  0  0
    0.9914    1.3551   -0.8034 C   0  0  0  0  0  0  0  0  0  0  0  0
    1.5010   -0.0598   -0.4322 C   0  0  0  0  0  0  0  0  0  0  0  0
    1.4523   -0.9662   -1.6980 C   0  0  0  0  0  0  0  0  0  0  0  0
    2.9480   -0.1423    0.1880 C   0  0  0  0  0  0  0  0  0  0  0  0
    3.9236   -0.1874   -0.8535 O   0  0  0  0  0  0  0  0  0  0  0  0
    3.2801    1.0449    1.1416 C   0  0  0  0  0  0  0  0  0  0  0  0
    2.6569    1.2680    2.1850 O   0  0  0  0  0  0  0  0  0  0  0  0
    4.4049    1.9904    0.7239 C   0  0  0  0  0  0  0  0  0  0  0  0
    4.6811    2.9531    1.7340 O   0  0  0  0  0  0  0  0  0  0  0  0
    4.8398   -1.3582    1.9237 H   0  0  0  0  0  0  0  0  0  0  0  0
    3.8250   -2.6831    2.5102 H   0  0  0  0  0  0  0  0  0  0  0  0
    3.4544   -1.0289    2.9866 H   0  0  0  0  0  0  0  0  0  0  0  0
    3.2817   -2.2955    0.2284 H   0  0  0  0  0  0  0  0  0  0  0  0
    1.1419   -2.7452    0.6758 H   0  0  0  0  0  0  0  0  0  0  0  0
    1.2428   -2.0242    2.2862 H   0  0  0  0  0  0  0  0  0  0  0  0
    0.7652    0.1059    1.5524 H   0  0  0  0  0  0  0  0  0  0  0  0
   -1.2258   -0.4199    1.5457 H   0  0  0  0  0  0  0  0  0  0  0  0
   -1.1411   -2.7877    0.9084 H   0  0  0  0  0  0  0  0  0  0  0  0
   -1.2263   -2.3404   -0.7954 H   0  0  0  0  0  0  0  0  0  0  0  0
   -3.4574   -2.8801    0.0457 H   0  0  0  0  0  0  0  0  0  0  0  0
   -3.2883   -1.7939    1.4103 H   0  0  0  0  0  0  0  0  0  0  0  0
   -4.9948   -2.0075   -1.4885 H   0  0  0  0  0  0  0  0  0  0  0  0
   -4.9482    2.1382   -2.7530 H   0  0  0  0  0  0  0  0  0  0  0  0
   -3.2272    2.6653   -1.1439 H   0  0  0  0  0  0  0  0  0  0  0  0
   -4.4005    1.3406    1.2575 H   0  0  0  0  0  0  0  0  0  0  0  0
   -3.0555    0.4795    1.9750 H   0  0  0  0  0  0  0  0  0  0  0  0
   -2.8190    2.1188    1.3668 H   0  0  0  0  0  0  0  0  0  0  0  0
   -0.4379    2.0377    0.6911 H   0  0  0  0  0  0  0  0  0  0  0  0
   -0.9662    2.4458   -2.0604 H   0  0  0  0  0  0  0  0  0  0  0  0
    1.0699    1.5027   -1.8893 H   0  0  0  0  0  0  0  0  0  0  0  0
    1.6354    2.1408   -0.3948 H   0  0  0  0  0  0  0  0  0  0  0  0
    1.8757   -1.9599   -1.5218 H   0  0  0  0  0  0  0  0  0  0  0  0
    2.0242   -0.5178   -2.5190 H   0  0  0  0  0  0  0  0  0  0  0  0
    0.4455   -1.1372   -2.0726 H   0  0  0  0  0  0  0  0  0  0  0  0
    4.6992   -0.6848   -0.5366 H   0  0  0  0  0  0  0  0  0  0  0  0
    4.1141    2.5179   -0.1879 H   0  0  0  0  0  0  0  0  0  0  0  0
    5.3215    1.4204    0.5551 H   0  0  0  0  0  0  0  0  0  0  0  0
    3.8766    3.0089    2.2884 H   0  0  0  0  0  0  0  0  0  0  0  0
  1  2  1  0
  2  3  1  0
  3  4  1  0
  4  5  1  0
  5  6  1  0
  6  7  1  0
  7  8  1  0
  8  9  2  0
  9 10  1  0
 10 11  2  0
 10 12  1  0
 12 13  2  0
 13 14  1  0
 14 15  1  0
 14 16  1  0
 16 17  1  0
 16 18  1  0
 18 19  1  0
 18 20  1  0
 20 21  1  0
 21 22  1  0
 21 23  1  0
 23 24  1  0
 23 25  1  0
 25 26  2  0
 25 27  1  0
 27 28  1  0
 23  2  1  0
 21  4  1  0
 16  5  1  0
 14  8  1  0
  1 29  1  0
  1 30  1  0
  1 31  1  0
  2 32  1  0
  3 33  1  0
  3 34  1  0
  4 35  1  0
  5 36  1  0
  6 37  1  0
  6 38  1  0
  7 39  1  0
  7 40  1  0
  9 41  1  0
 12 42  1  0
 13 43  1  0
 15 44  1  0
 15 45  1  0
 15 46  1  0
 18 47  1  0
 19 48  1  0
 20 49  1  0
 20 50  1  0
 22 51  1  0
 22 52  1  0
 22 53  1  0
 24 54  1  0
 27 55  1  0
 27 56  1  0
 28 57  1  0
M  END
$$$$
