
     RDKit          3D

 33 32  0  0  0  0  0  0  0  0999 V2000
   -2.9721   -0.4889   -0.7039 C   0  0  0  0  0  0  0  0  0  0  0  0
   -2.4909    0.2559    0.5567 C   0  0  0  0  0  0  0  0  0  0  0  0
   -3.5073   -0.0327    1.6899 C   0  0  0  0  0  0  0  0  0  0  0  0
   -2.4883    1.7898    0.3244 C   0  0  0  0  0  0  0  0  0  0  0  0
   -2.0768    2.1693   -0.9802 O   0  0  0  0  0  0  0  0  0  0  0  0
   -1.0958   -0.2570    1.0258 C   0  0  0  0  0  0  0  0  0  0  0  0
   -1.1519   -1.6447    1.3963 O   0  0  0  0  0  0  0  0  0  0  0  0
    0.0847   -0.0440    0.0485 C   0  0  0  0  0  0  0  0  0  0  0  0
    0.1290    0.8456   -0.7945 O   0  0  0  0  0  0  0  0  0  0  0  0
    1.1186   -0.9314    0.2630 N   0  0  0  0  0  0  0  0  0  0  0  0
    2.3668   -0.8784   -0.4704 C   0  0  0  0  0  0  0  0  0  0  0  0
    3.3180    0.1622    0.1149 C   0  0  0  0  0  0  0  0  0  0  0  0
    4.6059    0.2642   -0.6883 C   0  0  0  0  0  0  0  0  0  0  0  0
    5.2966   -0.9767   -0.6509 O   0  0  0  0  0  0  0  0  0  0  0  0
   -3.9297   -0.0850   -1.0524 H   0  0  0  0  0  0  0  0  0  0  0  0
   -3.1238   -1.5563   -0.5104 H   0  0  0  0  0  0  0  0  0  0  0  0
   -2.2569   -0.4022   -1.5281 H   0  0  0  0  0  0  0  0  0  0  0  0
   -4.5098    0.3207    1.4217 H   0  0  0  0  0  0  0  0  0  0  0  0
   -3.5903   -1.1047    1.9000 H   0  0  0  0  0  0  0  0  0  0  0  0
   -3.2144    0.4703    2.6184 H   0  0  0  0  0  0  0  0  0  0  0  0
   -1.8563    2.3050    1.0564 H   0  0  0  0  0  0  0  0  0  0  0  0
   -3.5006    2.1922    0.4441 H   0  0  0  0  0  0  0  0  0  0  0  0
   -1.1520    1.8642   -1.1066 H   0  0  0  0  0  0  0  0  0  0  0  0
   -0.8139    0.2828    1.9394 H   0  0  0  0  0  0  0  0  0  0  0  0
   -1.3294   -2.1500    0.5824 H   0  0  0  0  0  0  0  0  0  0  0  0
    1.0246   -1.5746    1.0448 H   0  0  0  0  0  0  0  0  0  0  0  0
    2.1453   -0.6458   -1.5181 H   0  0  0  0  0  0  0  0  0  0  0  0
    2.8045   -1.8808   -0.4266 H   0  0  0  0  0  0  0  0  0  0  0  0
    3.5504   -0.1149    1.1507 H   0  0  0  0  0  0  0  0  0  0  0  0
    2.8331    1.1448    0.1446 H   0  0  0  0  0  0  0  0  0  0  0  0
    5.2553    1.0338   -0.2592 H   0  0  0  0  0  0  0  0  0  0  0  0
    4.3991    0.5212   -1.7321 H   0  0  0  0  0  0  0  0  0  0  0  0
    6.1287   -0.8539   -1.1407 H   0  0  0  0  0  0  0  0  0  0  0  0
  1  2  1  0
  2  3  1  0
  2  4  1  0
  4  5  1  0
  2  6  1  0
  6  7  1  0
  6  8  1  0
  8  9  2  0
  8 10  1  0
 10 11  1  0
 11 12  1  0
 12 13  1  0
 13 14  1  0
  1 15  1  0
  1 16  1  0
  1 17  1  0
  3 18  1  0
  3 19  1  0
  3 20  1  0
  4 21  1  0
  4 22  1  0
  5 23  1  0
  6 24  1  0
  7 25  1  0
 10 26  1  0
 11 27  1  0
 11 28  1  0
 12 29  1  0
 12 30  1  0
 13 31  1  0
 13 32  1  0
 14 33  1  0
M  END
$$$$
