
     RDKit          3D

 49 52  0  0  0  0  0  0  0  0999 V2000
    2.2452   -0.1971    2.2406 C   0  0  0  0  0  0  0  0  0  0  0  0
    2.2743    0.3734    0.8115 C   0  0  0  0  0  0  0  0  0  0  0  0
    1.4218    1.6652    0.7518 C   0  0  0  0  0  0  0  0  0  0  0  0
   -0.0913    1.4112    0.7710 C   0  0  0  0  0  0  0  0  0  0  0  0
   -0.5132    0.4843   -0.3816 C   0  0  0  0  0  0  0  0  0  0  0  0
    0.2634   -0.8618   -0.2345 C   0  0  0  0  0  0  0  0  0  0  0  0
   -0.1928   -1.8858   -1.2847 C   0  0  0  0  0  0  0  0  0  0  0  0
   -1.6842   -2.2241   -1.1477 C   0  0  0  0  0  0  0  0  0  0  0  0
   -2.4245   -1.1904   -0.3263 C   0  0  0  0  0  0  0  0  0  0  0  0
   -3.2544   -1.5839    0.6554 C   0  0  0  0  0  0  0  0  0  0  0  0
   -3.8412   -0.6184    1.6113 C   0  0  0  0  0  0  0  0  0  0  0  0
   -4.6596   -1.0084    2.4402 O   0  0  0  0  0  0  0  0  0  0  0  0
   -3.3258    0.7963    1.5904 C   0  0  0  0  0  0  0  0  0  0  0  0
   -3.0130    1.2281    0.1663 C   0  0  0  0  0  0  0  0  0  0  0  0
   -2.0677    0.2697   -0.6135 C   0  0  0  0  0  0  0  0  0  0  0  0
   -2.3634    0.5650   -2.1155 C   0  0  0  0  0  0  0  0  0  0  0  0
    1.7927   -0.6725   -0.2216 C   0  0  0  0  0  0  0  0  0  0  0  0
    2.4215   -0.2298   -1.5542 C   0  0  0  0  0  0  0  0  0  0  0  0
    3.6174    0.6606   -1.2002 C   0  0  0  0  0  0  0  0  0  0  0  0
    3.7161    0.6524    0.3253 C   0  0  0  0  0  0  0  0  0  0  0  0
    4.6132   -0.3942    0.6878 O   0  0  0  0  0  0  0  0  0  0  0  0
    2.7184    0.4971    2.9440 H   0  0  0  0  0  0  0  0  0  0  0  0
    1.2246   -0.3786    2.5905 H   0  0  0  0  0  0  0  0  0  0  0  0
    2.7755   -1.1531    2.3091 H   0  0  0  0  0  0  0  0  0  0  0  0
    1.6521    2.2389   -0.1543 H   0  0  0  0  0  0  0  0  0  0  0  0
    1.6858    2.3220    1.5906 H   0  0  0  0  0  0  0  0  0  0  0  0
   -0.3761    0.9830    1.7356 H   0  0  0  0  0  0  0  0  0  0  0  0
   -0.5842    2.3844    0.6855 H   0  0  0  0  0  0  0  0  0  0  0  0
   -0.1398    0.9784   -1.2890 H   0  0  0  0  0  0  0  0  0  0  0  0
    0.0074   -1.2841    0.7491 H   0  0  0  0  0  0  0  0  0  0  0  0
    0.0002   -1.5024   -2.2939 H   0  0  0  0  0  0  0  0  0  0  0  0
    0.3920   -2.8097   -1.1957 H   0  0  0  0  0  0  0  0  0  0  0  0
   -2.1378   -2.3136   -2.1417 H   0  0  0  0  0  0  0  0  0  0  0  0
   -1.7733   -3.2142   -0.6822 H   0  0  0  0  0  0  0  0  0  0  0  0
   -3.4879   -2.6256    0.8468 H   0  0  0  0  0  0  0  0  0  0  0  0
   -4.1033    1.4520    1.9986 H   0  0  0  0  0  0  0  0  0  0  0  0
   -2.4575    0.8574    2.2493 H   0  0  0  0  0  0  0  0  0  0  0  0
   -2.6377    2.2567    0.1532 H   0  0  0  0  0  0  0  0  0  0  0  0
   -3.9791    1.2766   -0.3595 H   0  0  0  0  0  0  0  0  0  0  0  0
   -1.7034    0.0144   -2.7932 H   0  0  0  0  0  0  0  0  0  0  0  0
   -2.2278    1.6313   -2.3339 H   0  0  0  0  0  0  0  0  0  0  0  0
   -3.3941    0.2998   -2.3811 H   0  0  0  0  0  0  0  0  0  0  0  0
    2.2410   -1.6455    0.0300 H   0  0  0  0  0  0  0  0  0  0  0  0
    2.7465   -1.1044   -2.1293 H   0  0  0  0  0  0  0  0  0  0  0  0
    1.7279    0.3259   -2.1922 H   0  0  0  0  0  0  0  0  0  0  0  0
    4.5315    0.2974   -1.6818 H   0  0  0  0  0  0  0  0  0  0  0  0
    3.4293    1.6766   -1.5655 H   0  0  0  0  0  0  0  0  0  0  0  0
    4.1238    1.5953    0.7049 H   0  0  0  0  0  0  0  0  0  0  0  0
    4.8114   -0.2957    1.6346 H   0  0  0  0  0  0  0  0  0  0  0  0
  1  2  1  0
  2  3  1  0
  3  4  1  0
  4  5  1  0
  5  6  1  0
  6  7  1  0
  7  8  1  0
  8  9  1  0
  9 10  2  0
 10 11  1  0
 11 12  2  0
 11 13  1  0
 13 14  1  0
 14 15  1  0
 15 16  1  0
  6 17  1  0
 17 18  1  0
 18 19  1  0
 19 20  1  0
 20 21  1  0
 17  2  1  0
 20  2  1  0
 15  5  1  0
 15  9  1  0
  1 22  1  0
  1 23  1  0
  1 24  1  0
  3 25  1  0
  3 26  1  0
  4 27  1  0
  4 28  1  0
  5 29  1  0
  6 30  1  0
  7 31  1  0
  7 32  1  0
  8 33  1  0
  8 34  1  0
 10 35  1  0
 13 36  1  0
 13 37  1  0
 14 38  1  0
 14 39  1  0
 16 40  1  0
 16 41  1  0
 16 42  1  0
 17 43  1  0
 18 44  1  0
 18 45  1  0
 19 46  1  0
 19 47  1  0
 20 48  1  0
 21 49  1  0
M  END
$$$$
