
     RDKit          3D

 49 52  0  0  0  0  0  0  0  0999 V2000
    2.3420    2.1067   -0.7705 C   0  0  0  0  0  0  0  0  0  0  0  0
    2.3950    0.8285    0.0835 C   0  0  0  0  0  0  0  0  0  0  0  0
    1.6509    1.0447    1.4224 C   0  0  0  0  0  0  0  0  0  0  0  0
    0.1363    1.1283    1.2561 C   0  0  0  0  0  0  0  0  0  0  0  0
   -0.4494   -0.1134    0.5540 C   0  0  0  0  0  0  0  0  0  0  0  0
    0.2749   -0.3945   -0.7892 C   0  0  0  0  0  0  0  0  0  0  0  0
   -0.2311   -1.6911   -1.4708 C   0  0  0  0  0  0  0  0  0  0  0  0
   -1.5808   -2.1853   -0.9543 C   0  0  0  0  0  0  0  0  0  0  0  0
   -2.4856   -1.0150   -0.7050 C   0  0  0  0  0  0  0  0  0  0  0  0
   -3.5755   -0.8175   -1.4663 C   0  0  0  0  0  0  0  0  0  0  0  0
   -4.4350    0.3753   -1.2940 C   0  0  0  0  0  0  0  0  0  0  0  0
   -5.4746    0.4655   -1.9436 O   0  0  0  0  0  0  0  0  0  0  0  0
   -4.0241    1.4259   -0.2936 C   0  0  0  0  0  0  0  0  0  0  0  0
   -2.5304    1.3694    0.0199 C   0  0  0  0  0  0  0  0  0  0  0  0
   -2.0259   -0.0512    0.3894 C   0  0  0  0  0  0  0  0  0  0  0  0
   -2.6666   -0.4909    1.7284 C   0  0  0  0  0  0  0  0  0  0  0  0
    1.8189   -0.3869   -0.6765 C   0  0  0  0  0  0  0  0  0  0  0  0
    2.4401   -1.5983    0.0483 C   0  0  0  0  0  0  0  0  0  0  0  0
    3.7398   -1.1081    0.6973 C   0  0  0  0  0  0  0  0  0  0  0  0
    3.8495    0.3763    0.3499 C   0  0  0  0  0  0  0  0  0  0  0  0
    4.6476    0.5076   -0.8241 O   0  0  0  0  0  0  0  0  0  0  0  0
    1.3154    2.4209   -0.9805 H   0  0  0  0  0  0  0  0  0  0  0  0
    2.8466    2.9344   -0.2599 H   0  0  0  0  0  0  0  0  0  0  0  0
    2.8305    1.9685   -1.7412 H   0  0  0  0  0  0  0  0  0  0  0  0
    1.8685    0.2359    2.1305 H   0  0  0  0  0  0  0  0  0  0  0  0
    2.0120    1.9634    1.9021 H   0  0  0  0  0  0  0  0  0  0  0  0
   -0.0999    2.0395    0.6982 H   0  0  0  0  0  0  0  0  0  0  0  0
   -0.3171    1.2429    2.2475 H   0  0  0  0  0  0  0  0  0  0  0  0
   -0.2248   -0.9678    1.2095 H   0  0  0  0  0  0  0  0  0  0  0  0
    0.0109    0.4339   -1.4629 H   0  0  0  0  0  0  0  0  0  0  0  0
   -0.3036   -1.5001   -2.5502 H   0  0  0  0  0  0  0  0  0  0  0  0
    0.4824   -2.5149   -1.3714 H   0  0  0  0  0  0  0  0  0  0  0  0
   -2.0095   -2.8903   -1.6766 H   0  0  0  0  0  0  0  0  0  0  0  0
   -1.4471   -2.7488   -0.0228 H   0  0  0  0  0  0  0  0  0  0  0  0
   -3.8782   -1.5021   -2.2509 H   0  0  0  0  0  0  0  0  0  0  0  0
   -4.6236    1.2915    0.6124 H   0  0  0  0  0  0  0  0  0  0  0  0
   -4.2610    2.4104   -0.7125 H   0  0  0  0  0  0  0  0  0  0  0  0
   -2.3368    2.0764    0.8353 H   0  0  0  0  0  0  0  0  0  0  0  0
   -1.9784    1.7359   -0.8564 H   0  0  0  0  0  0  0  0  0  0  0  0
   -3.7565   -0.5764    1.6588 H   0  0  0  0  0  0  0  0  0  0  0  0
   -2.4431    0.2229    2.5284 H   0  0  0  0  0  0  0  0  0  0  0  0
   -2.2952   -1.4722    2.0467 H   0  0  0  0  0  0  0  0  0  0  0  0
    2.2198   -0.3893   -1.7013 H   0  0  0  0  0  0  0  0  0  0  0  0
    1.7764   -2.0070    0.8174 H   0  0  0  0  0  0  0  0  0  0  0  0
    2.6515   -2.4085   -0.6583 H   0  0  0  0  0  0  0  0  0  0  0  0
    4.5972   -1.6881    0.3400 H   0  0  0  0  0  0  0  0  0  0  0  0
    3.6742   -1.2450    1.7826 H   0  0  0  0  0  0  0  0  0  0  0  0
    4.3284    0.9533    1.1479 H   0  0  0  0  0  0  0  0  0  0  0  0
    5.5449    0.2046   -0.6031 H   0  0  0  0  0  0  0  0  0  0  0  0
  1  2  1  0
  2  3  1  0
  3  4  1  0
  4  5  1  0
  5  6  1  0
  6  7  1  0
  7  8  1  0
  8  9  1  0
  9 10  2  0
 10 11  1  0
 11 12  2  0
 11 13  1  0
 13 14  1  0
 14 15  1  0
 15 16  1  0
  6 17  1  0
 17 18  1  0
 18 19  1  0
 19 20  1  0
 20 21  1  0
 17  2  1  0
 20  2  1  0
 15  5  1  0
 15  9  1  0
  1 22  1  0
  1 23  1  0
  1 24  1  0
  3 25  1  0
  3 26  1  0
  4 27  1  0
  4 28  1  0
  5 29  1  0
  6 30  1  0
  7 31  1  0
  7 32  1  0
  8 33  1  0
  8 34  1  0
 10 35  1  0
 13 36  1  0
 13 37  1  0
 14 38  1  0
 14 39  1  0
 16 40  1  0
 16 41  1  0
 16 42  1  0
 17 43  1  0
 18 44  1  0
 18 45  1  0
 19 46  1  0
 19 47  1  0
 20 48  1  0
 21 49  1  0
M  END
$$$$
