
     RDKit          3D

 49 52  0  0  0  0  0  0  0  0999 V2000
   -2.3069    0.5839   -1.6299 C   0  0  0  0  0  0  0  0  0  0  0  0
   -2.3674    0.4247   -0.0958 C   0  0  0  0  0  0  0  0  0  0  0  0
   -1.5929    1.5653    0.5787 C   0  0  0  0  0  0  0  0  0  0  0  0
   -0.0711    1.4339    0.3816 C   0  0  0  0  0  0  0  0  0  0  0  0
    0.5076    0.0580    0.8213 C   0  0  0  0  0  0  0  0  0  0  0  0
   -0.3092   -1.1417    0.2490 C   0  0  0  0  0  0  0  0  0  0  0  0
    0.1431   -1.6068   -1.1486 C   0  0  0  0  0  0  0  0  0  0  0  0
    1.2261   -0.7656   -1.8283 C   0  0  0  0  0  0  0  0  0  0  0  0
    2.3264   -0.2503   -0.9358 C   0  0  0  0  0  0  0  0  0  0  0  0
    3.4941    0.1359   -1.4828 C   0  0  0  0  0  0  0  0  0  0  0  0
    4.5898    0.7219   -0.6718 C   0  0  0  0  0  0  0  0  0  0  0  0
    5.6741    0.9476   -1.2055 O   0  0  0  0  0  0  0  0  0  0  0  0
    4.3491    0.9984    0.7939 C   0  0  0  0  0  0  0  0  0  0  0  0
    2.8584    1.0722    1.1179 C   0  0  0  0  0  0  0  0  0  0  0  0
    2.0465   -0.1260    0.5542 C   0  0  0  0  0  0  0  0  0  0  0  0
    2.5386   -1.4234    1.2534 C   0  0  0  0  0  0  0  0  0  0  0  0
   -1.8111   -0.8995    0.4554 C   0  0  0  0  0  0  0  0  0  0  0  0
   -2.8196   -1.9528    0.0083 C   0  0  0  0  0  0  0  0  0  0  0  0
   -4.1725   -1.2142    0.0362 C   0  0  0  0  0  0  0  0  0  0  0  0
   -3.8583    0.2743    0.2957 C   0  0  0  0  0  0  0  0  0  0  0  0
   -4.0800    0.5345    1.6785 O   0  0  0  0  0  0  0  0  0  0  0  0
   -2.8398    1.4923   -1.9361 H   0  0  0  0  0  0  0  0  0  0  0  0
   -2.7704   -0.2529   -2.1614 H   0  0  0  0  0  0  0  0  0  0  0  0
   -1.2899    0.6813   -2.0055 H   0  0  0  0  0  0  0  0  0  0  0  0
   -1.7853    1.5770    1.6587 H   0  0  0  0  0  0  0  0  0  0  0  0
   -1.9310    2.5360    0.1964 H   0  0  0  0  0  0  0  0  0  0  0  0
    0.1860    1.6505   -0.6592 H   0  0  0  0  0  0  0  0  0  0  0  0
    0.3896    2.2297    0.9781 H   0  0  0  0  0  0  0  0  0  0  0  0
    0.3719    0.0293    1.9139 H   0  0  0  0  0  0  0  0  0  0  0  0
   -0.0979   -1.9991    0.9057 H   0  0  0  0  0  0  0  0  0  0  0  0
    0.5340   -2.6293   -1.0483 H   0  0  0  0  0  0  0  0  0  0  0  0
   -0.7009   -1.7016   -1.8380 H   0  0  0  0  0  0  0  0  0  0  0  0
    1.6540   -1.3598   -2.6465 H   0  0  0  0  0  0  0  0  0  0  0  0
    0.7553    0.1003   -2.3057 H   0  0  0  0  0  0  0  0  0  0  0  0
    3.6971    0.0554   -2.5454 H   0  0  0  0  0  0  0  0  0  0  0  0
    4.8131    1.9600    1.0412 H   0  0  0  0  0  0  0  0  0  0  0  0
    4.8507    0.2243    1.3823 H   0  0  0  0  0  0  0  0  0  0  0  0
    2.7240    1.1480    2.2039 H   0  0  0  0  0  0  0  0  0  0  0  0
    2.4907    2.0127    0.6896 H   0  0  0  0  0  0  0  0  0  0  0  0
    2.0577   -2.3245    0.8612 H   0  0  0  0  0  0  0  0  0  0  0  0
    3.6134   -1.5868    1.1224 H   0  0  0  0  0  0  0  0  0  0  0  0
    2.3413   -1.3816    2.3307 H   0  0  0  0  0  0  0  0  0  0  0  0
   -1.9210   -0.8583    1.5537 H   0  0  0  0  0  0  0  0  0  0  0  0
   -2.6228   -2.3280   -1.0001 H   0  0  0  0  0  0  0  0  0  0  0  0
   -2.8244   -2.8161    0.6819 H   0  0  0  0  0  0  0  0  0  0  0  0
   -4.6680   -1.3392   -0.9333 H   0  0  0  0  0  0  0  0  0  0  0  0
   -4.8282   -1.6344    0.8065 H   0  0  0  0  0  0  0  0  0  0  0  0
   -4.5281    0.9250   -0.2764 H   0  0  0  0  0  0  0  0  0  0  0  0
   -4.0362    1.4977    1.8040 H   0  0  0  0  0  0  0  0  0  0  0  0
  1  2  1  0
  2  3  1  0
  3  4  1  0
  4  5  1  0
  5  6  1  0
  6  7  1  0
  7  8  1  0
  8  9  1  0
  9 10  2  0
 10 11  1  0
 11 12  2  0
 11 13  1  0
 13 14  1  0
 14 15  1  0
 15 16  1  0
  6 17  1  0
 17 18  1  0
 18 19  1  0
 19 20  1  0
 20 21  1  0
 17  2  1  0
 20  2  1  0
 15  5  1  0
 15  9  1  0
  1 22  1  0
  1 23  1  0
  1 24  1  0
  3 25  1  0
  3 26  1  0
  4 27  1  0
  4 28  1  0
  5 29  1  0
  6 30  1  0
  7 31  1  0
  7 32  1  0
  8 33  1  0
  8 34  1  0
 10 35  1  0
 13 36  1  0
 13 37  1  0
 14 38  1  0
 14 39  1  0
 16 40  1  0
 16 41  1  0
 16 42  1  0
 17 43  1  0
 18 44  1  0
 18 45  1  0
 19 46  1  0
 19 47  1  0
 20 48  1  0
 21 49  1  0
M  END
$$$$
