
     RDKit          3D

 49 52  0  0  0  0  0  0  0  0999 V2000
   -2.9891   -1.2615    1.5388 C   0  0  0  0  0  0  0  0  0  0  0  0
   -2.5247   -0.5551    0.2550 C   0  0  0  0  0  0  0  0  0  0  0  0
   -1.5984   -1.4676   -0.5671 C   0  0  0  0  0  0  0  0  0  0  0  0
   -0.2850   -1.7734    0.1387 C   0  0  0  0  0  0  0  0  0  0  0  0
    0.4981   -0.5623    0.6975 C   0  0  0  0  0  0  0  0  0  0  0  0
   -0.3980    0.6404    1.1490 C   0  0  0  0  0  0  0  0  0  0  0  0
    0.3429    1.9885    1.1642 C   0  0  0  0  0  0  0  0  0  0  0  0
    1.7894    1.8340    1.6035 C   0  0  0  0  0  0  0  0  0  0  0  0
    2.5795    0.8979    0.7196 C   0  0  0  0  0  0  0  0  0  0  0  0
    3.9212    1.0007    0.7229 C   0  0  0  0  0  0  0  0  0  0  0  0
    4.7865    0.0689   -0.0326 C   0  0  0  0  0  0  0  0  0  0  0  0
    5.9959    0.2823   -0.0856 O   0  0  0  0  0  0  0  0  0  0  0  0
    4.1514   -1.1008   -0.7365 C   0  0  0  0  0  0  0  0  0  0  0  0
    2.7586   -1.4177   -0.1949 C   0  0  0  0  0  0  0  0  0  0  0  0
    1.8208   -0.1748   -0.0771 C   0  0  0  0  0  0  0  0  0  0  0  0
    1.5207    0.3475   -1.4957 C   0  0  0  0  0  0  0  0  0  0  0  0
   -1.8164    0.7758    0.5479 C   0  0  0  0  0  0  0  0  0  0  0  0
   -1.9453    1.5503   -0.7743 C   0  0  0  0  0  0  0  0  0  0  0  0
   -3.2399    1.0660   -1.4289 C   0  0  0  0  0  0  0  0  0  0  0  0
   -3.7502   -0.0783   -0.5566 C   0  0  0  0  0  0  0  0  0  0  0  0
   -4.3246   -1.0958   -1.3562 O   0  0  0  0  0  0  0  0  0  0  0  0
   -3.5007   -2.2019    1.3067 H   0  0  0  0  0  0  0  0  0  0  0  0
   -2.1564   -1.4901    2.2107 H   0  0  0  0  0  0  0  0  0  0  0  0
   -3.6895   -0.6355    2.1034 H   0  0  0  0  0  0  0  0  0  0  0  0
   -1.3747   -1.0241   -1.5442 H   0  0  0  0  0  0  0  0  0  0  0  0
   -2.1052   -2.4169   -0.7835 H   0  0  0  0  0  0  0  0  0  0  0  0
   -0.5020   -2.4473    0.9785 H   0  0  0  0  0  0  0  0  0  0  0  0
    0.3223   -2.3761   -0.5401 H   0  0  0  0  0  0  0  0  0  0  0  0
    0.8950   -0.9525    1.6522 H   0  0  0  0  0  0  0  0  0  0  0  0
   -0.5933    0.4189    2.2118 H   0  0  0  0  0  0  0  0  0  0  0  0
    0.3202    2.4760    0.1851 H   0  0  0  0  0  0  0  0  0  0  0  0
   -0.1713    2.6730    1.8510 H   0  0  0  0  0  0  0  0  0  0  0  0
    2.2582    2.8256    1.6251 H   0  0  0  0  0  0  0  0  0  0  0  0
    1.8096    1.4458    2.6301 H   0  0  0  0  0  0  0  0  0  0  0  0
    4.4482    1.7562    1.2962 H   0  0  0  0  0  0  0  0  0  0  0  0
    4.1198   -0.8820   -1.8085 H   0  0  0  0  0  0  0  0  0  0  0  0
    4.7939   -1.9769   -0.5924 H   0  0  0  0  0  0  0  0  0  0  0  0
    2.8704   -1.8816    0.7952 H   0  0  0  0  0  0  0  0  0  0  0  0
    2.3268   -2.1818   -0.8493 H   0  0  0  0  0  0  0  0  0  0  0  0
    0.9716    1.2887   -1.4876 H   0  0  0  0  0  0  0  0  0  0  0  0
    0.9430   -0.3802   -2.0743 H   0  0  0  0  0  0  0  0  0  0  0  0
    2.4357    0.5546   -2.0608 H   0  0  0  0  0  0  0  0  0  0  0  0
   -2.4178    1.3341    1.2830 H   0  0  0  0  0  0  0  0  0  0  0  0
   -1.9690    2.6323   -0.6071 H   0  0  0  0  0  0  0  0  0  0  0  0
   -1.1172    1.3419   -1.4526 H   0  0  0  0  0  0  0  0  0  0  0  0
   -3.9810    1.8721   -1.4722 H   0  0  0  0  0  0  0  0  0  0  0  0
   -3.0586    0.7484   -2.4622 H   0  0  0  0  0  0  0  0  0  0  0  0
   -4.5325    0.3107    0.1077 H   0  0  0  0  0  0  0  0  0  0  0  0
   -4.6389   -1.7963   -0.7599 H   0  0  0  0  0  0  0  0  0  0  0  0
  1  2  1  0
  2  3  1  0
  3  4  1  0
  4  5  1  0
  5  6  1  0
  6  7  1  0
  7  8  1  0
  8  9  1  0
  9 10  2  0
 10 11  1  0
 11 12  2  0
 11 13  1  0
 13 14  1  0
 14 15  1  0
 15 16  1  0
  6 17  1  0
 17 18  1  0
 18 19  1  0
 19 20  1  0
 20 21  1  0
 17  2  1  0
 20  2  1  0
 15  5  1  0
 15  9  1  0
  1 22  1  0
  1 23  1  0
  1 24  1  0
  3 25  1  0
  3 26  1  0
  4 27  1  0
  4 28  1  0
  5 29  1  0
  6 30  1  0
  7 31  1  0
  7 32  1  0
  8 33  1  0
  8 34  1  0
 10 35  1  0
 13 36  1  0
 13 37  1  0
 14 38  1  0
 14 39  1  0
 16 40  1  0
 16 41  1  0
 16 42  1  0
 17 43  1  0
 18 44  1  0
 18 45  1  0
 19 46  1  0
 19 47  1  0
 20 48  1  0
 21 49  1  0
M  END
$$$$
