
     RDKit          3D

 49 52  0  0  0  0  0  0  0  0999 V2000
   -3.5557    0.6723   -1.5899 C   0  0  0  0  0  0  0  0  0  0  0  0
   -2.6040    0.5146   -0.3861 C   0  0  0  0  0  0  0  0  0  0  0  0
   -1.5874    1.6809   -0.4540 C   0  0  0  0  0  0  0  0  0  0  0  0
   -0.3375    1.4924    0.4003 C   0  0  0  0  0  0  0  0  0  0  0  0
    0.3837    0.1422    0.1692 C   0  0  0  0  0  0  0  0  0  0  0  0
   -0.4048   -0.7731   -0.8014 C   0  0  0  0  0  0  0  0  0  0  0  0
    0.2642   -2.1523   -0.9101 C   0  0  0  0  0  0  0  0  0  0  0  0
    1.7091   -2.0266   -1.3760 C   0  0  0  0  0  0  0  0  0  0  0  0
    2.5071   -1.1026   -0.4860 C   0  0  0  0  0  0  0  0  0  0  0  0
    3.6925   -1.5095    0.0025 C   0  0  0  0  0  0  0  0  0  0  0  0
    4.5721   -0.6025    0.7751 C   0  0  0  0  0  0  0  0  0  0  0  0
    5.6345   -1.0276    1.2224 O   0  0  0  0  0  0  0  0  0  0  0  0
    4.1629    0.8407    0.9046 C   0  0  0  0  0  0  0  0  0  0  0  0
    2.6475    0.9596    0.9767 C   0  0  0  0  0  0  0  0  0  0  0  0
    1.9078    0.2852   -0.2178 C   0  0  0  0  0  0  0  0  0  0  0  0
    2.1066    1.1387   -1.4922 C   0  0  0  0  0  0  0  0  0  0  0  0
   -1.9025   -0.8797   -0.4259 C   0  0  0  0  0  0  0  0  0  0  0  0
   -2.1887   -1.5425    0.9392 C   0  0  0  0  0  0  0  0  0  0  0  0
   -2.6995   -0.4455    1.8529 C   0  0  0  0  0  0  0  0  0  0  0  0
   -3.4515    0.4744    0.9112 C   0  0  0  0  0  0  0  0  0  0  0  0
   -3.6487    1.7407    1.5099 O   0  0  0  0  0  0  0  0  0  0  0  0
   -4.0830    1.6320   -1.5520 H   0  0  0  0  0  0  0  0  0  0  0  0
   -4.3105   -0.1220   -1.6109 H   0  0  0  0  0  0  0  0  0  0  0  0
   -3.0064    0.6250   -2.5370 H   0  0  0  0  0  0  0  0  0  0  0  0
   -2.0673    2.6305   -0.1887 H   0  0  0  0  0  0  0  0  0  0  0  0
   -1.2550    1.8143   -1.4931 H   0  0  0  0  0  0  0  0  0  0  0  0
    0.3232    2.3447    0.2177 H   0  0  0  0  0  0  0  0  0  0  0  0
   -0.6040    1.5788    1.4595 H   0  0  0  0  0  0  0  0  0  0  0  0
    0.3731   -0.3696    1.1440 H   0  0  0  0  0  0  0  0  0  0  0  0
   -0.3698   -0.3307   -1.8065 H   0  0  0  0  0  0  0  0  0  0  0  0
    0.2481   -2.6758    0.0523 H   0  0  0  0  0  0  0  0  0  0  0  0
   -0.2884   -2.7784   -1.6209 H   0  0  0  0  0  0  0  0  0  0  0  0
    1.7333   -1.6427   -2.4033 H   0  0  0  0  0  0  0  0  0  0  0  0
    2.1560   -3.0277   -1.4118 H   0  0  0  0  0  0  0  0  0  0  0  0
    4.0997   -2.4969   -0.1863 H   0  0  0  0  0  0  0  0  0  0  0  0
    4.5986    1.2434    1.8258 H   0  0  0  0  0  0  0  0  0  0  0  0
    4.5746    1.4008    0.0593 H   0  0  0  0  0  0  0  0  0  0  0  0
    2.3845    2.0213    1.0501 H   0  0  0  0  0  0  0  0  0  0  0  0
    2.3181    0.4961    1.9174 H   0  0  0  0  0  0  0  0  0  0  0  0
    1.5009    0.7793   -2.3299 H   0  0  0  0  0  0  0  0  0  0  0  0
    1.8442    2.1885   -1.3281 H   0  0  0  0  0  0  0  0  0  0  0  0
    3.1505    1.1225   -1.8271 H   0  0  0  0  0  0  0  0  0  0  0  0
   -2.3762   -1.5111   -1.1908 H   0  0  0  0  0  0  0  0  0  0  0  0
   -2.9777   -2.2941    0.8075 H   0  0  0  0  0  0  0  0  0  0  0  0
   -1.3342   -2.0565    1.3848 H   0  0  0  0  0  0  0  0  0  0  0  0
   -1.8810    0.0696    2.3633 H   0  0  0  0  0  0  0  0  0  0  0  0
   -3.3519   -0.8390    2.6397 H   0  0  0  0  0  0  0  0  0  0  0  0
   -4.4402    0.0378    0.7188 H   0  0  0  0  0  0  0  0  0  0  0  0
   -4.1668    2.2800    0.8885 H   0  0  0  0  0  0  0  0  0  0  0  0
  1  2  1  0
  2  3  1  0
  3  4  1  0
  4  5  1  0
  5  6  1  0
  6  7  1  0
  7  8  1  0
  8  9  1  0
  9 10  2  0
 10 11  1  0
 11 12  2  0
 11 13  1  0
 13 14  1  0
 14 15  1  0
 15 16  1  0
  6 17  1  0
 17 18  1  0
 18 19  1  0
 19 20  1  0
 20 21  1  0
 17  2  1  0
 20  2  1  0
 15  5  1  0
 15  9  1  0
  1 22  1  0
  1 23  1  0
  1 24  1  0
  3 25  1  0
  3 26  1  0
  4 27  1  0
  4 28  1  0
  5 29  1  0
  6 30  1  0
  7 31  1  0
  7 32  1  0
  8 33  1  0
  8 34  1  0
 10 35  1  0
 13 36  1  0
 13 37  1  0
 14 38  1  0
 14 39  1  0
 16 40  1  0
 16 41  1  0
 16 42  1  0
 17 43  1  0
 18 44  1  0
 18 45  1  0
 19 46  1  0
 19 47  1  0
 20 48  1  0
 21 49  1  0
M  END
$$$$
