
     RDKit          3D

 49 52  0  0  0  0  0  0  0  0999 V2000
   -2.6515    0.2206   -1.5167 C   0  0  0  0  0  0  0  0  0  0  0  0
   -2.4339   -0.5383   -0.1878 C   0  0  0  0  0  0  0  0  0  0  0  0
   -1.6564   -1.8386   -0.4374 C   0  0  0  0  0  0  0  0  0  0  0  0
   -0.2045   -1.5533   -0.8504 C   0  0  0  0  0  0  0  0  0  0  0  0
    0.5756   -0.6435    0.1385 C   0  0  0  0  0  0  0  0  0  0  0  0
   -0.2239    0.6100    0.6163 C   0  0  0  0  0  0  0  0  0  0  0  0
    0.0467    1.8054   -0.2895 C   0  0  0  0  0  0  0  0  0  0  0  0
    1.5131    2.2356   -0.1768 C   0  0  0  0  0  0  0  0  0  0  0  0
    2.4798    1.0990    0.0856 C   0  0  0  0  0  0  0  0  0  0  0  0
    3.6696    1.3715    0.6521 C   0  0  0  0  0  0  0  0  0  0  0  0
    4.7185    0.3363    0.8092 C   0  0  0  0  0  0  0  0  0  0  0  0
    5.7797    0.6303    1.3543 O   0  0  0  0  0  0  0  0  0  0  0  0
    4.4711   -1.0227    0.2072 C   0  0  0  0  0  0  0  0  0  0  0  0
    2.9932   -1.3741    0.2931 C   0  0  0  0  0  0  0  0  0  0  0  0
    2.0533   -0.3066   -0.3467 C   0  0  0  0  0  0  0  0  0  0  0  0
    2.2264   -0.3611   -1.8842 C   0  0  0  0  0  0  0  0  0  0  0  0
   -1.6846    0.2450    0.9038 C   0  0  0  0  0  0  0  0  0  0  0  0
   -2.6686    1.3318    1.3246 C   0  0  0  0  0  0  0  0  0  0  0  0
   -4.0501    0.6587    1.1979 C   0  0  0  0  0  0  0  0  0  0  0  0
   -3.8161   -0.6939    0.4924 C   0  0  0  0  0  0  0  0  0  0  0  0
   -3.7948   -1.7288    1.4717 O   0  0  0  0  0  0  0  0  0  0  0  0
   -3.1190    1.1994   -1.3733 H   0  0  0  0  0  0  0  0  0  0  0  0
   -1.7301    0.3844   -2.0756 H   0  0  0  0  0  0  0  0  0  0  0  0
   -3.3123   -0.3569   -2.1746 H   0  0  0  0  0  0  0  0  0  0  0  0
   -2.1502   -2.4351   -1.2139 H   0  0  0  0  0  0  0  0  0  0  0  0
   -1.6358   -2.4619    0.4651 H   0  0  0  0  0  0  0  0  0  0  0  0
    0.3212   -2.5119   -0.9438 H   0  0  0  0  0  0  0  0  0  0  0  0
   -0.2165   -1.1144   -1.8517 H   0  0  0  0  0  0  0  0  0  0  0  0
    0.6588   -1.2532    1.0515 H   0  0  0  0  0  0  0  0  0  0  0  0
    0.1875    0.8900    1.5999 H   0  0  0  0  0  0  0  0  0  0  0  0
   -0.1698    1.5670   -1.3335 H   0  0  0  0  0  0  0  0  0  0  0  0
   -0.5829    2.6617   -0.0281 H   0  0  0  0  0  0  0  0  0  0  0  0
    1.5924    2.9712    0.6348 H   0  0  0  0  0  0  0  0  0  0  0  0
    1.8001    2.7523   -1.1009 H   0  0  0  0  0  0  0  0  0  0  0  0
    3.9557    2.3707    0.9628 H   0  0  0  0  0  0  0  0  0  0  0  0
    4.8332   -1.0238   -0.8253 H   0  0  0  0  0  0  0  0  0  0  0  0
    5.0491   -1.7626    0.7719 H   0  0  0  0  0  0  0  0  0  0  0  0
    2.7496   -1.4863    1.3593 H   0  0  0  0  0  0  0  0  0  0  0  0
    2.8232   -2.3556   -0.1666 H   0  0  0  0  0  0  0  0  0  0  0  0
    3.2235   -0.0256   -2.1936 H   0  0  0  0  0  0  0  0  0  0  0  0
    2.1047   -1.3795   -2.2693 H   0  0  0  0  0  0  0  0  0  0  0  0
    1.5074    0.2837   -2.4006 H   0  0  0  0  0  0  0  0  0  0  0  0
   -1.6136   -0.4232    1.7804 H   0  0  0  0  0  0  0  0  0  0  0  0
   -2.6272    2.2099    0.6732 H   0  0  0  0  0  0  0  0  0  0  0  0
   -2.4827    1.6722    2.3485 H   0  0  0  0  0  0  0  0  0  0  0  0
   -4.7063    1.2979    0.5967 H   0  0  0  0  0  0  0  0  0  0  0  0
   -4.5110    0.5339    2.1836 H   0  0  0  0  0  0  0  0  0  0  0  0
   -4.6160   -0.9285   -0.2176 H   0  0  0  0  0  0  0  0  0  0  0  0
   -4.6753   -1.7592    1.8836 H   0  0  0  0  0  0  0  0  0  0  0  0
  1  2  1  0
  2  3  1  0
  3  4  1  0
  4  5  1  0
  5  6  1  0
  6  7  1  0
  7  8  1  0
  8  9  1  0
  9 10  2  0
 10 11  1  0
 11 12  2  0
 11 13  1  0
 13 14  1  0
 14 15  1  0
 15 16  1  0
  6 17  1  0
 17 18  1  0
 18 19  1  0
 19 20  1  0
 20 21  1  0
 17  2  1  0
 20  2  1  0
 15  5  1  0
 15  9  1  0
  1 22  1  0
  1 23  1  0
  1 24  1  0
  3 25  1  0
  3 26  1  0
  4 27  1  0
  4 28  1  0
  5 29  1  0
  6 30  1  0
  7 31  1  0
  7 32  1  0
  8 33  1  0
  8 34  1  0
 10 35  1  0
 13 36  1  0
 13 37  1  0
 14 38  1  0
 14 39  1  0
 16 40  1  0
 16 41  1  0
 16 42  1  0
 17 43  1  0
 18 44  1  0
 18 45  1  0
 19 46  1  0
 19 47  1  0
 20 48  1  0
 21 49  1  0
M  END
$$$$
