
     RDKit          3D

 63 67  0  0  0  0  0  0  0  0999 V2000
   -1.2230   -3.1589    0.3790 C   0  0  0  0  0  0  0  0  0  0  0  0
   -0.1814   -2.0368    0.1261 C   0  0  0  0  0  0  0  0  0  0  0  0
   -0.4639   -1.4161   -1.2504 C   0  0  0  0  0  0  0  0  0  0  0  0
   -1.7356   -0.5392   -1.2352 C   0  0  0  0  0  0  0  0  0  0  0  0
   -1.6777    0.5947   -0.1705 C   0  0  0  0  0  0  0  0  0  0  0  0
   -1.3789    0.0137    1.2531 C   0  0  0  0  0  0  0  0  0  0  0  0
   -2.6132   -0.6030    1.9291 C   0  0  0  0  0  0  0  0  0  0  0  0
   -3.8202    0.3318    1.9176 C   0  0  0  0  0  0  0  0  0  0  0  0
   -4.0944    0.8480    0.5272 C   0  0  0  0  0  0  0  0  0  0  0  0
   -5.2967    0.6910   -0.0470 C   0  0  0  0  0  0  0  0  0  0  0  0
   -5.5796    1.2016   -1.3993 C   0  0  0  0  0  0  0  0  0  0  0  0
   -6.6501    0.9649   -1.9467 O   0  0  0  0  0  0  0  0  0  0  0  0
   -4.5868    1.9152   -2.0011 N   0  0  0  0  0  0  0  0  0  0  0  0
   -3.2741    1.9649   -1.6168 C   0  0  0  0  0  0  0  0  0  0  0  0
   -2.4240    2.3800   -2.4053 O   0  0  0  0  0  0  0  0  0  0  0  0
   -2.9323    1.5335   -0.1722 C   0  0  0  0  0  0  0  0  0  0  0  0
   -2.6203    2.8640    0.5555 C   0  0  0  0  0  0  0  0  0  0  0  0
   -0.1429   -0.8941    1.1624 C   0  0  0  0  0  0  0  0  0  0  0  0
    0.4116   -1.5486    2.4195 C   0  0  0  0  0  0  0  0  0  0  0  0
    1.4422   -2.5655    1.8884 C   0  0  0  0  0  0  0  0  0  0  0  0
    1.2137   -2.6901    0.3594 C   0  0  0  0  0  0  0  0  0  0  0  0
    2.3513   -2.1572   -0.5271 C   0  0  0  0  0  0  0  0  0  0  0  0
    2.6382   -2.7691   -1.5550 O   0  0  0  0  0  0  0  0  0  0  0  0
    2.9342   -0.9767   -0.1118 N   0  0  0  0  0  0  0  0  0  0  0  0
    3.9081   -0.2130   -0.7888 C   0  0  0  0  0  0  0  0  0  0  0  0
    4.4250    0.9019   -0.1135 C   0  0  0  0  0  0  0  0  0  0  0  0
    5.3927    1.7309   -0.7093 C   0  0  0  0  0  0  0  0  0  0  0  0
    5.8458    1.4244   -1.9984 C   0  0  0  0  0  0  0  0  0  0  0  0
    5.3366    0.3189   -2.6755 C   0  0  0  0  0  0  0  0  0  0  0  0
    4.3707   -0.4933   -2.0746 C   0  0  0  0  0  0  0  0  0  0  0  0
    5.9677    2.9032    0.0453 C   0  0  0  0  0  0  0  0  0  0  0  0
    5.1228    3.3918    0.9980 F   0  0  0  0  0  0  0  0  0  0  0  0
    6.2729    3.9611   -0.7564 F   0  0  0  0  0  0  0  0  0  0  0  0
    7.1179    2.5832    0.6996 F   0  0  0  0  0  0  0  0  0  0  0  0
   -2.2438   -2.8704    0.1284 H   0  0  0  0  0  0  0  0  0  0  0  0
   -1.2198   -3.5125    1.4140 H   0  0  0  0  0  0  0  0  0  0  0  0
   -1.0085   -4.0254   -0.2585 H   0  0  0  0  0  0  0  0  0  0  0  0
    0.3715   -0.7811   -1.5684 H   0  0  0  0  0  0  0  0  0  0  0  0
   -0.5648   -2.1989   -2.0119 H   0  0  0  0  0  0  0  0  0  0  0  0
   -1.8343   -0.1107   -2.2377 H   0  0  0  0  0  0  0  0  0  0  0  0
   -2.6281   -1.1544   -1.0844 H   0  0  0  0  0  0  0  0  0  0  0  0
   -0.8121    1.2153   -0.4506 H   0  0  0  0  0  0  0  0  0  0  0  0
   -1.0826    0.8594    1.8903 H   0  0  0  0  0  0  0  0  0  0  0  0
   -2.3789   -0.8595    2.9682 H   0  0  0  0  0  0  0  0  0  0  0  0
   -2.9186   -1.5287    1.4458 H   0  0  0  0  0  0  0  0  0  0  0  0
   -4.6881   -0.2065    2.3194 H   0  0  0  0  0  0  0  0  0  0  0  0
   -3.6465    1.1741    2.5972 H   0  0  0  0  0  0  0  0  0  0  0  0
   -6.1226    0.1874    0.4426 H   0  0  0  0  0  0  0  0  0  0  0  0
   -4.7691    2.1877   -2.9562 H   0  0  0  0  0  0  0  0  0  0  0  0
   -1.8043    3.4029    0.0585 H   0  0  0  0  0  0  0  0  0  0  0  0
   -2.3231    2.7235    1.5990 H   0  0  0  0  0  0  0  0  0  0  0  0
   -3.4925    3.5303    0.5491 H   0  0  0  0  0  0  0  0  0  0  0  0
    0.6419   -0.1949    0.8375 H   0  0  0  0  0  0  0  0  0  0  0  0
    0.8828   -0.8171    3.0842 H   0  0  0  0  0  0  0  0  0  0  0  0
   -0.3644   -2.0648    2.9937 H   0  0  0  0  0  0  0  0  0  0  0  0
    1.2683   -3.5333    2.3752 H   0  0  0  0  0  0  0  0  0  0  0  0
    2.4636   -2.2708    2.1472 H   0  0  0  0  0  0  0  0  0  0  0  0
    1.1846   -3.7643    0.1267 H   0  0  0  0  0  0  0  0  0  0  0  0
    2.6710   -0.6276    0.7990 H   0  0  0  0  0  0  0  0  0  0  0  0
    4.0838    1.1383    0.8937 H   0  0  0  0  0  0  0  0  0  0  0  0
    6.6029    2.0435   -2.4786 H   0  0  0  0  0  0  0  0  0  0  0  0
    5.6859    0.0845   -3.6791 H   0  0  0  0  0  0  0  0  0  0  0  0
    3.9895   -1.3329   -2.6498 H   0  0  0  0  0  0  0  0  0  0  0  0
  1  2  1  0
  2  3  1  0
  3  4  1  0
  4  5  1  0
  5  6  1  0
  6  7  1  0
  7  8  1  0
  8  9  1  0
  9 10  2  0
 10 11  1  0
 11 12  2  0
 11 13  1  0
 13 14  1  0
 14 15  2  0
 14 16  1  0
 16 17  1  0
  6 18  1  0
 18 19  1  0
 19 20  1  0
 20 21  1  0
 21 22  1  0
 22 23  2  0
 22 24  1  0
 24 25  1  0
 25 26  2  0
 26 27  1  0
 27 28  2  0
 28 29  1  0
 29 30  2  0
 27 31  1  0
 31 32  1  0
 31 33  1  0
 31 34  1  0
 18  2  1  0
 30 25  1  0
 21  2  1  0
 16  5  1  0
 16  9  1  0
  1 35  1  0
  1 36  1  0
  1 37  1  0
  3 38  1  0
  3 39  1  0
  4 40  1  0
  4 41  1  0
  5 42  1  0
  6 43  1  0
  7 44  1  0
  7 45  1  0
  8 46  1  0
  8 47  1  0
 10 48  1  0
 13 49  1  0
 17 50  1  0
 17 51  1  0
 17 52  1  0
 18 53  1  0
 19 54  1  0
 19 55  1  0
 20 56  1  0
 20 57  1  0
 21 58  1  0
 24 59  1  0
 26 60  1  0
 28 61  1  0
 29 62  1  0
 30 63  1  0
M  END
$$$$
