
     RDKit          3D

 63 67  0  0  0  0  0  0  0  0999 V2000
    0.2330   -2.4203    0.5647 C   0  0  0  0  0  0  0  0  0  0  0  0
    0.0980   -1.0561   -0.1352 C   0  0  0  0  0  0  0  0  0  0  0  0
   -0.0752    0.0573    0.9235 C   0  0  0  0  0  0  0  0  0  0  0  0
   -1.4775    0.1103    1.5413 C   0  0  0  0  0  0  0  0  0  0  0  0
   -2.5618    0.3245    0.4694 C   0  0  0  0  0  0  0  0  0  0  0  0
   -2.4926   -0.8042   -0.5959 C   0  0  0  0  0  0  0  0  0  0  0  0
   -3.1133   -2.1433   -0.1225 C   0  0  0  0  0  0  0  0  0  0  0  0
   -4.1070   -2.0176    1.0294 C   0  0  0  0  0  0  0  0  0  0  0  0
   -4.8662   -0.7355    0.8949 C   0  0  0  0  0  0  0  0  0  0  0  0
   -6.1809   -0.7230    0.6207 C   0  0  0  0  0  0  0  0  0  0  0  0
   -6.8870    0.5421    0.3314 C   0  0  0  0  0  0  0  0  0  0  0  0
   -8.0821    0.5455    0.0609 O   0  0  0  0  0  0  0  0  0  0  0  0
   -6.1194    1.6700    0.2878 N   0  0  0  0  0  0  0  0  0  0  0  0
   -4.7512    1.6383    0.1709 C   0  0  0  0  0  0  0  0  0  0  0  0
   -4.1766    2.4794   -0.5162 O   0  0  0  0  0  0  0  0  0  0  0  0
   -4.0345    0.5372    1.0011 C   0  0  0  0  0  0  0  0  0  0  0  0
   -4.0753    1.0305    2.4641 C   0  0  0  0  0  0  0  0  0  0  0  0
   -1.0693   -1.0179   -1.1627 C   0  0  0  0  0  0  0  0  0  0  0  0
   -0.6710    0.1064   -2.1392 C   0  0  0  0  0  0  0  0  0  0  0  0
    0.8494    0.2102   -2.0887 C   0  0  0  0  0  0  0  0  0  0  0  0
    1.3193   -0.8454   -1.0820 C   0  0  0  0  0  0  0  0  0  0  0  0
    2.6670   -0.4893   -0.4376 C   0  0  0  0  0  0  0  0  0  0  0  0
    2.8270   -0.4544    0.7760 O   0  0  0  0  0  0  0  0  0  0  0  0
    3.6595   -0.2822   -1.3850 N   0  0  0  0  0  0  0  0  0  0  0  0
    5.0096    0.0592   -1.1607 C   0  0  0  0  0  0  0  0  0  0  0  0
    5.5715    0.2480    0.1041 C   0  0  0  0  0  0  0  0  0  0  0  0
    6.9286    0.5928    0.2502 C   0  0  0  0  0  0  0  0  0  0  0  0
    7.7225    0.7413   -0.8955 C   0  0  0  0  0  0  0  0  0  0  0  0
    7.1700    0.5562   -2.1607 C   0  0  0  0  0  0  0  0  0  0  0  0
    5.8220    0.2167   -2.2907 C   0  0  0  0  0  0  0  0  0  0  0  0
    7.5107    0.7764    1.6301 C   0  0  0  0  0  0  0  0  0  0  0  0
    8.7577    1.3286    1.6195 F   0  0  0  0  0  0  0  0  0  0  0  0
    6.7566    1.5887    2.4208 F   0  0  0  0  0  0  0  0  0  0  0  0
    7.6339   -0.3999    2.3045 F   0  0  0  0  0  0  0  0  0  0  0  0
   -0.5660   -2.6001    1.2876 H   0  0  0  0  0  0  0  0  0  0  0  0
    1.1752   -2.4888    1.1193 H   0  0  0  0  0  0  0  0  0  0  0  0
    0.2207   -3.2420   -0.1595 H   0  0  0  0  0  0  0  0  0  0  0  0
    0.1467    1.0394    0.4874 H   0  0  0  0  0  0  0  0  0  0  0  0
    0.6396   -0.0779    1.7430 H   0  0  0  0  0  0  0  0  0  0  0  0
   -1.6672   -0.7961    2.1241 H   0  0  0  0  0  0  0  0  0  0  0  0
   -1.4795    0.9458    2.2509 H   0  0  0  0  0  0  0  0  0  0  0  0
   -2.2630    1.2536   -0.0302 H   0  0  0  0  0  0  0  0  0  0  0  0
   -3.1208   -0.4722   -1.4372 H   0  0  0  0  0  0  0  0  0  0  0  0
   -2.3553   -2.8784    0.1556 H   0  0  0  0  0  0  0  0  0  0  0  0
   -3.6280   -2.5903   -0.9851 H   0  0  0  0  0  0  0  0  0  0  0  0
   -3.5854   -2.0354    1.9926 H   0  0  0  0  0  0  0  0  0  0  0  0
   -4.7716   -2.8898    1.0317 H   0  0  0  0  0  0  0  0  0  0  0  0
   -6.7759   -1.6254    0.5320 H   0  0  0  0  0  0  0  0  0  0  0  0
   -6.5727    2.4413   -0.1808 H   0  0  0  0  0  0  0  0  0  0  0  0
   -3.5287    1.9747    2.5737 H   0  0  0  0  0  0  0  0  0  0  0  0
   -5.1001    1.2242    2.8054 H   0  0  0  0  0  0  0  0  0  0  0  0
   -3.6470    0.2977    3.1567 H   0  0  0  0  0  0  0  0  0  0  0  0
   -1.0638   -1.9527   -1.7428 H   0  0  0  0  0  0  0  0  0  0  0  0
   -1.1088    1.0732   -1.8729 H   0  0  0  0  0  0  0  0  0  0  0  0
   -1.0173   -0.1257   -3.1524 H   0  0  0  0  0  0  0  0  0  0  0  0
    1.2815    0.0320   -3.0800 H   0  0  0  0  0  0  0  0  0  0  0  0
    1.1505    1.2206   -1.7864 H   0  0  0  0  0  0  0  0  0  0  0  0
    1.4895   -1.7825   -1.6344 H   0  0  0  0  0  0  0  0  0  0  0  0
    3.3930   -0.3946   -2.3544 H   0  0  0  0  0  0  0  0  0  0  0  0
    4.9767    0.1351    1.0076 H   0  0  0  0  0  0  0  0  0  0  0  0
    8.7757    1.0042   -0.8055 H   0  0  0  0  0  0  0  0  0  0  0  0
    7.7885    0.6767   -3.0475 H   0  0  0  0  0  0  0  0  0  0  0  0
    5.4186    0.0797   -3.2910 H   0  0  0  0  0  0  0  0  0  0  0  0
  1  2  1  0
  2  3  1  0
  3  4  1  0
  4  5  1  0
  5  6  1  0
  6  7  1  0
  7  8  1  0
  8  9  1  0
  9 10  2  0
 10 11  1  0
 11 12  2  0
 11 13  1  0
 13 14  1  0
 14 15  2  0
 14 16  1  0
 16 17  1  0
  6 18  1  0
 18 19  1  0
 19 20  1  0
 20 21  1  0
 21 22  1  0
 22 23  2  0
 22 24  1  0
 24 25  1  0
 25 26  2  0
 26 27  1  0
 27 28  2  0
 28 29  1  0
 29 30  2  0
 27 31  1  0
 31 32  1  0
 31 33  1  0
 31 34  1  0
 18  2  1  0
 30 25  1  0
 21  2  1  0
 16  5  1  0
 16  9  1  0
  1 35  1  0
  1 36  1  0
  1 37  1  0
  3 38  1  0
  3 39  1  0
  4 40  1  0
  4 41  1  0
  5 42  1  0
  6 43  1  0
  7 44  1  0
  7 45  1  0
  8 46  1  0
  8 47  1  0
 10 48  1  0
 13 49  1  0
 17 50  1  0
 17 51  1  0
 17 52  1  0
 18 53  1  0
 19 54  1  0
 19 55  1  0
 20 56  1  0
 20 57  1  0
 21 58  1  0
 24 59  1  0
 26 60  1  0
 28 61  1  0
 29 62  1  0
 30 63  1  0
M  END
$$$$
