
     RDKit          3D

 63 67  0  0  0  0  0  0  0  0999 V2000
   -0.3083    0.5197    2.2565 C   0  0  0  0  0  0  0  0  0  0  0  0
   -0.1071    0.2143    0.7583 C   0  0  0  0  0  0  0  0  0  0  0  0
   -0.3460   -1.2904    0.4969 C   0  0  0  0  0  0  0  0  0  0  0  0
   -1.8124   -1.7039    0.6238 C   0  0  0  0  0  0  0  0  0  0  0  0
   -2.7861   -0.8947   -0.2591 C   0  0  0  0  0  0  0  0  0  0  0  0
   -2.0481    0.2425   -1.0204 C   0  0  0  0  0  0  0  0  0  0  0  0
   -3.0398    1.0873   -1.8460 C   0  0  0  0  0  0  0  0  0  0  0  0
   -4.2144    1.5987   -1.0317 C   0  0  0  0  0  0  0  0  0  0  0  0
   -4.9588    0.4398   -0.4331 C   0  0  0  0  0  0  0  0  0  0  0  0
   -6.2718    0.2737   -0.6642 C   0  0  0  0  0  0  0  0  0  0  0  0
   -7.0220   -0.8455   -0.0649 C   0  0  0  0  0  0  0  0  0  0  0  0
   -8.1905   -1.0522   -0.3679 O   0  0  0  0  0  0  0  0  0  0  0  0
   -6.3297   -1.6493    0.7888 N   0  0  0  0  0  0  0  0  0  0  0  0
   -4.9728   -1.8022    0.6905 C   0  0  0  0  0  0  0  0  0  0  0  0
   -4.4802   -2.9180    0.8436 O   0  0  0  0  0  0  0  0  0  0  0  0
   -4.1456   -0.5075    0.4468 C   0  0  0  0  0  0  0  0  0  0  0  0
   -3.9948    0.1709    1.8217 C   0  0  0  0  0  0  0  0  0  0  0  0
   -1.0854    1.0793   -0.1300 C   0  0  0  0  0  0  0  0  0  0  0  0
   -0.1532    1.9539   -0.9951 C   0  0  0  0  0  0  0  0  0  0  0  0
    1.1543    1.1891   -1.0710 C   0  0  0  0  0  0  0  0  0  0  0  0
    1.3292    0.7135    0.3654 C   0  0  0  0  0  0  0  0  0  0  0  0
    2.5288   -0.2280    0.5616 C   0  0  0  0  0  0  0  0  0  0  0  0
    2.4420   -1.2917    1.1614 O   0  0  0  0  0  0  0  0  0  0  0  0
    3.7095    0.3124    0.0693 N   0  0  0  0  0  0  0  0  0  0  0  0
    4.9915   -0.2770    0.0642 C   0  0  0  0  0  0  0  0  0  0  0  0
    6.0468    0.4970   -0.4379 C   0  0  0  0  0  0  0  0  0  0  0  0
    7.3595   -0.0064   -0.4938 C   0  0  0  0  0  0  0  0  0  0  0  0
    7.6084   -1.3019   -0.0254 C   0  0  0  0  0  0  0  0  0  0  0  0
    6.5638   -2.0785    0.4719 C   0  0  0  0  0  0  0  0  0  0  0  0
    5.2625   -1.5693    0.5138 C   0  0  0  0  0  0  0  0  0  0  0  0
    8.4779    0.8565   -1.0207 C   0  0  0  0  0  0  0  0  0  0  0  0
    8.1077    1.5872   -2.1103 F   0  0  0  0  0  0  0  0  0  0  0  0
    9.5774    0.1499   -1.4032 F   0  0  0  0  0  0  0  0  0  0  0  0
    8.9124    1.7594   -0.0989 F   0  0  0  0  0  0  0  0  0  0  0  0
   -1.3006    0.2343    2.6092 H   0  0  0  0  0  0  0  0  0  0  0  0
    0.4244   -0.0196    2.8673 H   0  0  0  0  0  0  0  0  0  0  0  0
   -0.1895    1.5895    2.4639 H   0  0  0  0  0  0  0  0  0  0  0  0
    0.2122   -1.9028    1.2128 H   0  0  0  0  0  0  0  0  0  0  0  0
    0.0227   -1.5676   -0.4987 H   0  0  0  0  0  0  0  0  0  0  0  0
   -1.8839   -2.7634    0.3433 H   0  0  0  0  0  0  0  0  0  0  0  0
   -2.0961   -1.6772    1.6782 H   0  0  0  0  0  0  0  0  0  0  0  0
   -3.0833   -1.5912   -1.0619 H   0  0  0  0  0  0  0  0  0  0  0  0
   -1.4118   -0.2522   -1.7708 H   0  0  0  0  0  0  0  0  0  0  0  0
   -2.5479    1.9362   -2.3286 H   0  0  0  0  0  0  0  0  0  0  0  0
   -3.4228    0.4649   -2.6671 H   0  0  0  0  0  0  0  0  0  0  0  0
   -4.8664    2.1916   -1.6849 H   0  0  0  0  0  0  0  0  0  0  0  0
   -3.8741    2.2753   -0.2404 H   0  0  0  0  0  0  0  0  0  0  0  0
   -6.8503    0.9402   -1.2945 H   0  0  0  0  0  0  0  0  0  0  0  0
   -6.8232   -2.5069    0.9949 H   0  0  0  0  0  0  0  0  0  0  0  0
   -3.3399    1.0439    1.7840 H   0  0  0  0  0  0  0  0  0  0  0  0
   -3.6115   -0.5171    2.5815 H   0  0  0  0  0  0  0  0  0  0  0  0
   -4.9636    0.5193    2.2035 H   0  0  0  0  0  0  0  0  0  0  0  0
   -1.6818    1.7481    0.4995 H   0  0  0  0  0  0  0  0  0  0  0  0
    0.0122    2.9140   -0.4893 H   0  0  0  0  0  0  0  0  0  0  0  0
   -0.5247    2.1786   -1.9960 H   0  0  0  0  0  0  0  0  0  0  0  0
    1.0862    0.3447   -1.7666 H   0  0  0  0  0  0  0  0  0  0  0  0
    1.9634    1.8411   -1.4129 H   0  0  0  0  0  0  0  0  0  0  0  0
    1.5671    1.5990    0.9762 H   0  0  0  0  0  0  0  0  0  0  0  0
    3.6621    1.2559   -0.2906 H   0  0  0  0  0  0  0  0  0  0  0  0
    5.8615    1.5088   -0.7957 H   0  0  0  0  0  0  0  0  0  0  0  0
    8.6161   -1.7143   -0.0477 H   0  0  0  0  0  0  0  0  0  0  0  0
    6.7569   -3.0871    0.8311 H   0  0  0  0  0  0  0  0  0  0  0  0
    4.4818   -2.2146    0.9050 H   0  0  0  0  0  0  0  0  0  0  0  0
  1  2  1  0
  2  3  1  0
  3  4  1  0
  4  5  1  0
  5  6  1  0
  6  7  1  0
  7  8  1  0
  8  9  1  0
  9 10  2  0
 10 11  1  0
 11 12  2  0
 11 13  1  0
 13 14  1  0
 14 15  2  0
 14 16  1  0
 16 17  1  0
  6 18  1  0
 18 19  1  0
 19 20  1  0
 20 21  1  0
 21 22  1  0
 22 23  2  0
 22 24  1  0
 24 25  1  0
 25 26  2  0
 26 27  1  0
 27 28  2  0
 28 29  1  0
 29 30  2  0
 27 31  1  0
 31 32  1  0
 31 33  1  0
 31 34  1  0
 18  2  1  0
 30 25  1  0
 21  2  1  0
 16  5  1  0
 16  9  1  0
  1 35  1  0
  1 36  1  0
  1 37  1  0
  3 38  1  0
  3 39  1  0
  4 40  1  0
  4 41  1  0
  5 42  1  0
  6 43  1  0
  7 44  1  0
  7 45  1  0
  8 46  1  0
  8 47  1  0
 10 48  1  0
 13 49  1  0
 17 50  1  0
 17 51  1  0
 17 52  1  0
 18 53  1  0
 19 54  1  0
 19 55  1  0
 20 56  1  0
 20 57  1  0
 21 58  1  0
 24 59  1  0
 26 60  1  0
 28 61  1  0
 29 62  1  0
 30 63  1  0
M  END
$$$$
