
     RDKit          3D

 51 54  0  0  0  0  0  0  0  0999 V2000
   -2.0090    5.4758   -0.4002 O   0  0  0  0  0  0  0  0  0  0  0  0
   -1.6601    4.2661    0.1244 C   0  0  0  0  0  0  0  0  0  0  0  0
   -1.6679    3.1108   -0.6489 C   0  0  0  0  0  0  0  0  0  0  0  0
   -1.3077    1.8897   -0.0728 C   0  0  0  0  0  0  0  0  0  0  0  0
   -0.9279    1.8241    1.2697 C   0  0  0  0  0  0  0  0  0  0  0  0
   -0.5560    0.5111    1.8924 C   0  0  0  0  0  0  0  0  0  0  0  0
   -0.1245   -0.4972    0.8359 C   0  0  0  0  0  0  0  0  0  0  0  0
    1.2199   -0.1518    0.4091 O   0  0  0  0  0  0  0  0  0  0  0  0
    1.9312   -1.1549   -0.1576 C   0  0  0  0  0  0  0  0  0  0  0  0
    1.5461   -2.3052   -0.3053 O   0  0  0  0  0  0  0  0  0  0  0  0
    3.2689   -0.6761   -0.5927 C   0  0  0  0  0  0  0  0  0  0  0  0
    3.6142    0.6847   -0.5811 C   0  0  0  0  0  0  0  0  0  0  0  0
    4.8744    1.0681   -1.0208 C   0  0  0  0  0  0  0  0  0  0  0  0
    5.2101    2.3912   -1.0178 O   0  0  0  0  0  0  0  0  0  0  0  0
    5.7870    0.1203   -1.4669 C   0  0  0  0  0  0  0  0  0  0  0  0
    7.0187    0.5332   -1.8957 O   0  0  0  0  0  0  0  0  0  0  0  0
    5.4500   -1.2274   -1.4774 C   0  0  0  0  0  0  0  0  0  0  0  0
    6.3883   -2.1135   -1.9240 O   0  0  0  0  0  0  0  0  0  0  0  0
    4.1935   -1.6367   -1.0450 C   0  0  0  0  0  0  0  0  0  0  0  0
   -1.0834   -0.4878   -0.3711 C   0  0  0  0  0  0  0  0  0  0  0  0
   -1.3753    0.8129   -0.9086 O   0  0  0  0  0  0  0  0  0  0  0  0
   -2.3462   -1.3069   -0.1278 C   0  0  0  0  0  0  0  0  0  0  0  0
   -3.5656   -0.7150    0.2469 C   0  0  0  0  0  0  0  0  0  0  0  0
   -4.6830   -1.5104    0.4712 C   0  0  0  0  0  0  0  0  0  0  0  0
   -5.8614   -0.9237    0.8355 O   0  0  0  0  0  0  0  0  0  0  0  0
   -4.6087   -2.8888    0.3283 C   0  0  0  0  0  0  0  0  0  0  0  0
   -5.7267   -3.6455    0.5522 O   0  0  0  0  0  0  0  0  0  0  0  0
   -3.4132   -3.4889   -0.0389 C   0  0  0  0  0  0  0  0  0  0  0  0
   -3.3951   -4.8497   -0.1651 O   0  0  0  0  0  0  0  0  0  0  0  0
   -2.2811   -2.7116   -0.2650 C   0  0  0  0  0  0  0  0  0  0  0  0
   -0.9466    3.0002    2.0309 C   0  0  0  0  0  0  0  0  0  0  0  0
   -0.6116    2.9303    3.3552 O   0  0  0  0  0  0  0  0  0  0  0  0
   -1.3025    4.2223    1.4654 C   0  0  0  0  0  0  0  0  0  0  0  0
   -2.2726    5.3459   -1.3266 H   0  0  0  0  0  0  0  0  0  0  0  0
   -1.9565    3.1364   -1.6946 H   0  0  0  0  0  0  0  0  0  0  0  0
    0.2667    0.6542    2.6033 H   0  0  0  0  0  0  0  0  0  0  0  0
   -1.4251    0.1324    2.4437 H   0  0  0  0  0  0  0  0  0  0  0  0
   -0.0845   -1.4855    1.3131 H   0  0  0  0  0  0  0  0  0  0  0  0
    2.9174    1.4471   -0.2436 H   0  0  0  0  0  0  0  0  0  0  0  0
    6.1242    2.4182   -1.3662 H   0  0  0  0  0  0  0  0  0  0  0  0
    7.4776   -0.2952   -2.1510 H   0  0  0  0  0  0  0  0  0  0  0  0
    6.0164   -3.0115   -1.8707 H   0  0  0  0  0  0  0  0  0  0  0  0
    3.9177   -2.6881   -1.0510 H   0  0  0  0  0  0  0  0  0  0  0  0
   -0.5737   -0.9800   -1.2096 H   0  0  0  0  0  0  0  0  0  0  0  0
   -3.6597    0.3618    0.3645 H   0  0  0  0  0  0  0  0  0  0  0  0
   -6.4849   -1.6717    0.9378 H   0  0  0  0  0  0  0  0  0  0  0  0
   -5.4285   -4.5637    0.3822 H   0  0  0  0  0  0  0  0  0  0  0  0
   -2.4980   -5.1171   -0.4295 H   0  0  0  0  0  0  0  0  0  0  0  0
   -1.3402   -3.1799   -0.5492 H   0  0  0  0  0  0  0  0  0  0  0  0
   -0.7353    3.8082    3.7539 H   0  0  0  0  0  0  0  0  0  0  0  0
   -1.3098    5.1386    2.0474 H   0  0  0  0  0  0  0  0  0  0  0  0
  1  2  1  0
  2  3  2  0
  3  4  1  0
  4  5  2  0
  5  6  1  0
  6  7  1  0
  7  8  1  0
  8  9  1  0
  9 10  2  0
  9 11  1  0
 11 12  2  0
 12 13  1  0
 13 14  1  0
 13 15  2  0
 15 16  1  0
 15 17  1  0
 17 18  1  0
 17 19  2  0
  7 20  1  0
 20 21  1  0
 20 22  1  0
 22 23  2  0
 23 24  1  0
 24 25  1  0
 24 26  2  0
 26 27  1  0
 26 28  1  0
 28 29  1  0
 28 30  2  0
  5 31  1  0
 31 32  1  0
 31 33  2  0
 33  2  1  0
 21  4  1  0
 30 22  1  0
 19 11  1  0
  1 34  1  0
  3 35  1  0
  6 36  1  0
  6 37  1  0
  7 38  1  0
 12 39  1  0
 14 40  1  0
 16 41  1  0
 18 42  1  0
 19 43  1  0
 20 44  1  0
 23 45  1  0
 25 46  1  0
 27 47  1  0
 29 48  1  0
 30 49  1  0
 32 50  1  0
 33 51  1  0
M  END
$$$$
