
     RDKit          3D

 51 54  0  0  0  0  0  0  0  0999 V2000
    1.2572   -4.9254    2.1469 O   0  0  0  0  0  0  0  0  0  0  0  0
    1.1285   -3.8822    1.2790 C   0  0  0  0  0  0  0  0  0  0  0  0
    1.1562   -2.5963    1.7997 C   0  0  0  0  0  0  0  0  0  0  0  0
    1.0301   -1.4969    0.9473 C   0  0  0  0  0  0  0  0  0  0  0  0
    0.8534   -1.6761   -0.4309 C   0  0  0  0  0  0  0  0  0  0  0  0
    0.6828   -0.4800   -1.3246 C   0  0  0  0  0  0  0  0  0  0  0  0
    0.2522    0.7502   -0.5288 C   0  0  0  0  0  0  0  0  0  0  0  0
   -1.1321    0.6086   -0.1142 O   0  0  0  0  0  0  0  0  0  0  0  0
   -2.0735    0.9244   -1.0328 C   0  0  0  0  0  0  0  0  0  0  0  0
   -1.8584    1.3582   -2.1525 O   0  0  0  0  0  0  0  0  0  0  0  0
   -3.4343    0.6790   -0.4884 C   0  0  0  0  0  0  0  0  0  0  0  0
   -3.6402   -0.0246    0.7112 C   0  0  0  0  0  0  0  0  0  0  0  0
   -4.9384   -0.2338    1.1749 C   0  0  0  0  0  0  0  0  0  0  0  0
   -5.1580   -0.9177    2.3368 O   0  0  0  0  0  0  0  0  0  0  0  0
   -6.0227    0.2534    0.4505 C   0  0  0  0  0  0  0  0  0  0  0  0
   -7.3028    0.0595    0.8924 O   0  0  0  0  0  0  0  0  0  0  0  0
   -5.8164    0.9458   -0.7419 C   0  0  0  0  0  0  0  0  0  0  0  0
   -6.9198    1.3996   -1.4132 O   0  0  0  0  0  0  0  0  0  0  0  0
   -4.5299    1.1620   -1.2214 C   0  0  0  0  0  0  0  0  0  0  0  0
    1.1135    0.8973    0.7383 C   0  0  0  0  0  0  0  0  0  0  0  0
    1.1044   -0.2787    1.5670 O   0  0  0  0  0  0  0  0  0  0  0  0
    2.5253    1.4111    0.4608 C   0  0  0  0  0  0  0  0  0  0  0  0
    3.6677    0.6173    0.6683 C   0  0  0  0  0  0  0  0  0  0  0  0
    4.9323    1.1264    0.3831 C   0  0  0  0  0  0  0  0  0  0  0  0
    6.0637    0.3773    0.5668 O   0  0  0  0  0  0  0  0  0  0  0  0
    5.0856    2.4219   -0.1033 C   0  0  0  0  0  0  0  0  0  0  0  0
    6.3432    2.8860   -0.3761 O   0  0  0  0  0  0  0  0  0  0  0  0
    3.9698    3.2250   -0.3021 C   0  0  0  0  0  0  0  0  0  0  0  0
    4.1306    4.4970   -0.7714 O   0  0  0  0  0  0  0  0  0  0  0  0
    2.6957    2.7276   -0.0209 C   0  0  0  0  0  0  0  0  0  0  0  0
    0.8584   -2.9865   -0.9322 C   0  0  0  0  0  0  0  0  0  0  0  0
    0.7421   -3.2781   -2.2627 O   0  0  0  0  0  0  0  0  0  0  0  0
    0.9848   -4.0876   -0.0857 C   0  0  0  0  0  0  0  0  0  0  0  0
    1.2071   -5.7558    1.6442 H   0  0  0  0  0  0  0  0  0  0  0  0
    1.2819   -2.4481    2.8688 H   0  0  0  0  0  0  0  0  0  0  0  0
   -0.0729   -0.6988   -2.0868 H   0  0  0  0  0  0  0  0  0  0  0  0
    1.6360   -0.2878   -1.8311 H   0  0  0  0  0  0  0  0  0  0  0  0
    0.3391    1.6484   -1.1525 H   0  0  0  0  0  0  0  0  0  0  0  0
   -2.7954   -0.4100    1.2746 H   0  0  0  0  0  0  0  0  0  0  0  0
   -4.3137   -1.2210    2.7048 H   0  0  0  0  0  0  0  0  0  0  0  0
   -7.8702    0.4797    0.2182 H   0  0  0  0  0  0  0  0  0  0  0  0
   -6.6279    1.8599   -2.2196 H   0  0  0  0  0  0  0  0  0  0  0  0
   -4.3648    1.7005   -2.1509 H   0  0  0  0  0  0  0  0  0  0  0  0
    0.6375    1.6586    1.3715 H   0  0  0  0  0  0  0  0  0  0  0  0
    3.5717   -0.3933    1.0544 H   0  0  0  0  0  0  0  0  0  0  0  0
    5.8033   -0.4838    0.9377 H   0  0  0  0  0  0  0  0  0  0  0  0
    6.9363    2.1454   -0.1465 H   0  0  0  0  0  0  0  0  0  0  0  0
    3.2683    4.9342   -0.8340 H   0  0  0  0  0  0  0  0  0  0  0  0
    1.8263    3.3629   -0.1724 H   0  0  0  0  0  0  0  0  0  0  0  0
    0.8133   -2.4680   -2.7911 H   0  0  0  0  0  0  0  0  0  0  0  0
    0.9731   -5.0868   -0.5092 H   0  0  0  0  0  0  0  0  0  0  0  0
  1  2  1  0
  2  3  2  0
  3  4  1  0
  4  5  2  0
  5  6  1  0
  6  7  1  0
  7  8  1  0
  8  9  1  0
  9 10  2  0
  9 11  1  0
 11 12  2  0
 12 13  1  0
 13 14  1  0
 13 15  2  0
 15 16  1  0
 15 17  1  0
 17 18  1  0
 17 19  2  0
  7 20  1  0
 20 21  1  0
 20 22  1  0
 22 23  2  0
 23 24  1  0
 24 25  1  0
 24 26  2  0
 26 27  1  0
 26 28  1  0
 28 29  1  0
 28 30  2  0
  5 31  1  0
 31 32  1  0
 31 33  2  0
 33  2  1  0
 21  4  1  0
 30 22  1  0
 19 11  1  0
  1 34  1  0
  3 35  1  0
  6 36  1  0
  6 37  1  0
  7 38  1  0
 12 39  1  0
 14 40  1  0
 16 41  1  0
 18 42  1  0
 19 43  1  0
 20 44  1  0
 23 45  1  0
 25 46  1  0
 27 47  1  0
 29 48  1  0
 30 49  1  0
 32 50  1  0
 33 51  1  0
M  END
$$$$
