
     RDKit          3D

 49 51  0  0  0  0  0  0  0  0999 V2000
   -4.8144    3.0982   -0.7990 C   0  0  0  0  0  0  0  0  0  0  0  0
   -3.9681    2.0200   -0.3456 N   0  0  0  0  0  0  0  0  0  0  0  0
   -4.4199    0.7190   -0.3638 C   0  0  0  0  0  0  0  0  0  0  0  0
   -5.5279    0.4328   -0.8135 O   0  0  0  0  0  0  0  0  0  0  0  0
   -3.4533   -0.3592    0.1802 C   0  0  0  0  0  0  0  0  0  0  0  0
   -4.1529   -1.7290    0.0724 C   0  0  0  0  0  0  0  0  0  0  0  0
   -3.0642   -0.1068    1.6540 C   0  0  0  0  0  0  0  0  0  0  0  0
   -1.5888   -0.5028    1.7661 C   0  0  0  0  0  0  0  0  0  0  0  0
   -0.9750   -0.0958    0.4117 C   0  0  0  0  0  0  0  0  0  0  0  0
   -0.8554    1.4045    0.4251 C   0  0  0  0  0  0  0  0  0  0  0  0
   -0.8300    2.5656    0.4498 N   0  0  0  0  0  0  0  0  0  0  0  0
   -2.1124   -0.3771   -0.6192 C   0  0  0  0  0  0  0  0  0  0  0  0
    0.3823   -0.7848    0.1187 N   0  0  0  0  0  0  0  0  0  0  0  0
    1.5258   -0.0030    0.3108 C   0  0  0  0  0  0  0  0  0  0  0  0
    2.7714   -0.3637   -0.0096 C   0  0  0  0  0  0  0  0  0  0  0  0
    2.9649   -1.6846   -0.6391 C   0  0  0  0  0  0  0  0  0  0  0  0
    4.0746   -1.9989   -1.0664 O   0  0  0  0  0  0  0  0  0  0  0  0
    1.8492   -2.5156   -0.6710 N   0  0  0  0  0  0  0  0  0  0  0  0
    2.1027   -3.8506   -1.2265 C   0  0  0  0  0  0  0  0  0  0  0  0
    0.5549   -2.1675   -0.1970 C   0  0  0  0  0  0  0  0  0  0  0  0
   -0.6373   -3.3538   -0.0099 S   0  0  0  0  0  0  0  0  0  0  0  0
    3.9059    0.5483    0.2484 C   0  0  0  0  0  0  0  0  0  0  0  0
    5.0170    0.1032    0.9863 C   0  0  0  0  0  0  0  0  0  0  0  0
    6.0966    0.9557    1.2380 C   0  0  0  0  0  0  0  0  0  0  0  0
    6.0709    2.2566    0.7510 C   0  0  0  0  0  0  0  0  0  0  0  0
    7.1056    3.0718    0.9954 F   0  0  0  0  0  0  0  0  0  0  0  0
    4.9820    2.7070    0.0164 C   0  0  0  0  0  0  0  0  0  0  0  0
    4.9594    3.9611   -0.4552 F   0  0  0  0  0  0  0  0  0  0  0  0
    3.9018    1.8651   -0.2394 C   0  0  0  0  0  0  0  0  0  0  0  0
   -5.5638    3.3024   -0.0298 H   0  0  0  0  0  0  0  0  0  0  0  0
   -4.1943    3.9838   -0.9568 H   0  0  0  0  0  0  0  0  0  0  0  0
   -5.3135    2.8225   -1.7319 H   0  0  0  0  0  0  0  0  0  0  0  0
   -3.1508    2.2918    0.1844 H   0  0  0  0  0  0  0  0  0  0  0  0
   -5.1184   -1.7216    0.5922 H   0  0  0  0  0  0  0  0  0  0  0  0
   -4.3457   -1.9946   -0.9734 H   0  0  0  0  0  0  0  0  0  0  0  0
   -3.5561   -2.5279    0.5202 H   0  0  0  0  0  0  0  0  0  0  0  0
   -3.1908    0.9427    1.9420 H   0  0  0  0  0  0  0  0  0  0  0  0
   -3.6740   -0.6873    2.3559 H   0  0  0  0  0  0  0  0  0  0  0  0
   -1.1085   -0.0016    2.6149 H   0  0  0  0  0  0  0  0  0  0  0  0
   -1.5204   -1.5741    1.9624 H   0  0  0  0  0  0  0  0  0  0  0  0
   -2.1098    0.3678   -1.4268 H   0  0  0  0  0  0  0  0  0  0  0  0
   -1.9952   -1.3245   -1.1445 H   0  0  0  0  0  0  0  0  0  0  0  0
    1.3993    0.9719    0.7737 H   0  0  0  0  0  0  0  0  0  0  0  0
    2.0932   -4.5807   -0.4105 H   0  0  0  0  0  0  0  0  0  0  0  0
    1.3282   -4.1050   -1.9569 H   0  0  0  0  0  0  0  0  0  0  0  0
    3.0672   -3.9237   -1.7363 H   0  0  0  0  0  0  0  0  0  0  0  0
    5.0569   -0.9180    1.3633 H   0  0  0  0  0  0  0  0  0  0  0  0
    6.9564    0.6096    1.8036 H   0  0  0  0  0  0  0  0  0  0  0  0
    3.0747    2.2513   -0.8289 H   0  0  0  0  0  0  0  0  0  0  0  0
  1  2  1  0
  2  3  1  0
  3  4  2  0
  3  5  1  0
  5  6  1  0
  5  7  1  0
  7  8  1  0
  8  9  1  0
  9 10  1  0
 10 11  3  0
  9 12  1  0
  9 13  1  0
 13 14  1  0
 14 15  2  0
 15 16  1  0
 16 17  2  0
 16 18  1  0
 18 19  1  0
 18 20  1  0
 20 21  2  0
 15 22  1  0
 22 23  2  0
 23 24  1  0
 24 25  2  0
 25 26  1  0
 25 27  1  0
 27 28  1  0
 27 29  2  0
 12  5  1  0
 20 13  1  0
 29 22  1  0
  1 30  1  0
  1 31  1  0
  1 32  1  0
  2 33  1  0
  6 34  1  0
  6 35  1  0
  6 36  1  0
  7 37  1  0
  7 38  1  0
  8 39  1  0
  8 40  1  0
 12 41  1  0
 12 42  1  0
 14 43  1  0
 19 44  1  0
 19 45  1  0
 19 46  1  0
 23 47  1  0
 24 48  1  0
 29 49  1  0
M  END
$$$$
