
     RDKit          3D

 51 54  0  0  0  0  0  0  0  0999 V2000
   -5.3975    5.0302   -0.4700 O   0  0  0  0  0  0  0  0  0  0  0  0
   -4.2030    4.4257   -0.2141 C   0  0  0  0  0  0  0  0  0  0  0  0
   -3.9460    3.1256   -0.6297 C   0  0  0  0  0  0  0  0  0  0  0  0
   -2.7061    2.5457   -0.3513 C   0  0  0  0  0  0  0  0  0  0  0  0
   -1.7249    3.2497    0.3616 C   0  0  0  0  0  0  0  0  0  0  0  0
   -0.4166    2.5915    0.6864 C   0  0  0  0  0  0  0  0  0  0  0  0
   -0.4841    1.0727    0.5372 C   0  0  0  0  0  0  0  0  0  0  0  0
    0.8769    0.5922    0.5013 O   0  0  0  0  0  0  0  0  0  0  0  0
    1.1509   -0.5065    1.2438 C   0  0  0  0  0  0  0  0  0  0  0  0
    0.3804   -1.0704    2.0001 O   0  0  0  0  0  0  0  0  0  0  0  0
    2.5473   -0.9621    1.0102 C   0  0  0  0  0  0  0  0  0  0  0  0
    3.4406   -0.2476    0.1943 C   0  0  0  0  0  0  0  0  0  0  0  0
    4.7318   -0.7272    0.0151 C   0  0  0  0  0  0  0  0  0  0  0  0
    5.5985   -0.0358   -0.7843 O   0  0  0  0  0  0  0  0  0  0  0  0
    5.1428   -1.8992    0.6361 C   0  0  0  0  0  0  0  0  0  0  0  0
    6.4212   -2.3443    0.4366 O   0  0  0  0  0  0  0  0  0  0  0  0
    4.2630   -2.6097    1.4430 C   0  0  0  0  0  0  0  0  0  0  0  0
    4.7195   -3.7594    2.0231 O   0  0  0  0  0  0  0  0  0  0  0  0
    2.9638   -2.1504    1.6370 C   0  0  0  0  0  0  0  0  0  0  0  0
   -1.2105    0.7496   -0.7811 C   0  0  0  0  0  0  0  0  0  0  0  0
   -2.5559    1.2572   -0.7893 O   0  0  0  0  0  0  0  0  0  0  0  0
   -1.2812   -0.7517   -1.0266 C   0  0  0  0  0  0  0  0  0  0  0  0
   -0.3262   -1.3670   -1.8609 C   0  0  0  0  0  0  0  0  0  0  0  0
   -0.3535   -2.7427   -2.0509 C   0  0  0  0  0  0  0  0  0  0  0  0
    0.5887   -3.3261   -2.8484 O   0  0  0  0  0  0  0  0  0  0  0  0
   -1.3191   -3.5190   -1.4295 C   0  0  0  0  0  0  0  0  0  0  0  0
   -1.3251   -4.8727   -1.6349 O   0  0  0  0  0  0  0  0  0  0  0  0
   -2.2664   -2.9273   -0.6028 C   0  0  0  0  0  0  0  0  0  0  0  0
   -3.1920   -3.7425   -0.0090 O   0  0  0  0  0  0  0  0  0  0  0  0
   -2.2537   -1.5507   -0.3925 C   0  0  0  0  0  0  0  0  0  0  0  0
   -2.0058    4.5688    0.7447 C   0  0  0  0  0  0  0  0  0  0  0  0
   -1.1039    5.3567    1.4045 O   0  0  0  0  0  0  0  0  0  0  0  0
   -3.2404    5.1520    0.4720 C   0  0  0  0  0  0  0  0  0  0  0  0
   -5.9280    4.4477   -1.0407 H   0  0  0  0  0  0  0  0  0  0  0  0
   -4.6928    2.5502   -1.1671 H   0  0  0  0  0  0  0  0  0  0  0  0
   -0.1105    2.8208    1.7149 H   0  0  0  0  0  0  0  0  0  0  0  0
    0.3595    3.0026    0.0270 H   0  0  0  0  0  0  0  0  0  0  0  0
   -1.0471    0.6668    1.3897 H   0  0  0  0  0  0  0  0  0  0  0  0
    3.1485    0.6700   -0.3064 H   0  0  0  0  0  0  0  0  0  0  0  0
    6.4226   -0.5645   -0.7722 H   0  0  0  0  0  0  0  0  0  0  0  0
    6.4785   -3.1639    0.9716 H   0  0  0  0  0  0  0  0  0  0  0  0
    3.9822   -4.1731    2.5054 H   0  0  0  0  0  0  0  0  0  0  0  0
    2.2651   -2.7015    2.2620 H   0  0  0  0  0  0  0  0  0  0  0  0
   -0.6792    1.2032   -1.6312 H   0  0  0  0  0  0  0  0  0  0  0  0
    0.4474   -0.7826   -2.3543 H   0  0  0  0  0  0  0  0  0  0  0  0
    0.3569   -4.2779   -2.8428 H   0  0  0  0  0  0  0  0  0  0  0  0
   -2.1109   -5.1852   -1.1367 H   0  0  0  0  0  0  0  0  0  0  0  0
   -3.7592   -3.1894    0.5588 H   0  0  0  0  0  0  0  0  0  0  0  0
   -2.9892   -1.0869    0.2593 H   0  0  0  0  0  0  0  0  0  0  0  0
   -0.2120    4.9874    1.3040 H   0  0  0  0  0  0  0  0  0  0  0  0
   -3.4452    6.1709    0.7866 H   0  0  0  0  0  0  0  0  0  0  0  0
  1  2  1  0
  2  3  2  0
  3  4  1  0
  4  5  2  0
  5  6  1  0
  6  7  1  0
  7  8  1  0
  8  9  1  0
  9 10  2  0
  9 11  1  0
 11 12  2  0
 12 13  1  0
 13 14  1  0
 13 15  2  0
 15 16  1  0
 15 17  1  0
 17 18  1  0
 17 19  2  0
  7 20  1  0
 20 21  1  0
 20 22  1  0
 22 23  2  0
 23 24  1  0
 24 25  1  0
 24 26  2  0
 26 27  1  0
 26 28  1  0
 28 29  1  0
 28 30  2  0
  5 31  1  0
 31 32  1  0
 31 33  2  0
 33  2  1  0
 21  4  1  0
 30 22  1  0
 19 11  1  0
  1 34  1  0
  3 35  1  0
  6 36  1  0
  6 37  1  0
  7 38  1  0
 12 39  1  0
 14 40  1  0
 16 41  1  0
 18 42  1  0
 19 43  1  0
 20 44  1  0
 23 45  1  0
 25 46  1  0
 27 47  1  0
 29 48  1  0
 30 49  1  0
 32 50  1  0
 33 51  1  0
M  END
$$$$
