
     RDKit          3D

 51 54  0  0  0  0  0  0  0  0999 V2000
   -5.4794   -4.7163   -0.7653 O   0  0  0  0  0  0  0  0  0  0  0  0
   -4.2225   -4.1999   -0.6583 C   0  0  0  0  0  0  0  0  0  0  0  0
   -4.0937   -2.8260   -0.5145 C   0  0  0  0  0  0  0  0  0  0  0  0
   -2.8240   -2.2572   -0.4055 C   0  0  0  0  0  0  0  0  0  0  0  0
   -1.6718   -3.0584   -0.4034 C   0  0  0  0  0  0  0  0  0  0  0  0
   -0.3161   -2.4265   -0.2536 C   0  0  0  0  0  0  0  0  0  0  0  0
   -0.3991   -0.9708    0.2116 C   0  0  0  0  0  0  0  0  0  0  0  0
    0.8388   -0.2812   -0.0678 O   0  0  0  0  0  0  0  0  0  0  0  0
    1.8504   -0.5025    0.8048 C   0  0  0  0  0  0  0  0  0  0  0  0
    1.8586   -1.3339    1.6974 O   0  0  0  0  0  0  0  0  0  0  0  0
    2.9945    0.3954    0.5043 C   0  0  0  0  0  0  0  0  0  0  0  0
    4.2537    0.0385    1.0141 C   0  0  0  0  0  0  0  0  0  0  0  0
    5.3493    0.8481    0.7369 C   0  0  0  0  0  0  0  0  0  0  0  0
    6.6032    0.5411    1.1996 O   0  0  0  0  0  0  0  0  0  0  0  0
    5.2013    2.0095   -0.0321 C   0  0  0  0  0  0  0  0  0  0  0  0
    6.3030    2.7808   -0.2922 O   0  0  0  0  0  0  0  0  0  0  0  0
    3.9473    2.3799   -0.5153 C   0  0  0  0  0  0  0  0  0  0  0  0
    3.8187    3.5246   -1.2565 O   0  0  0  0  0  0  0  0  0  0  0  0
    2.8368    1.5780   -0.2496 C   0  0  0  0  0  0  0  0  0  0  0  0
   -1.5373   -0.2882   -0.5647 C   0  0  0  0  0  0  0  0  0  0  0  0
   -2.8050   -0.8925   -0.2744 O   0  0  0  0  0  0  0  0  0  0  0  0
   -1.6385    1.1915   -0.2147 C   0  0  0  0  0  0  0  0  0  0  0  0
   -2.0849    1.6084    1.0554 C   0  0  0  0  0  0  0  0  0  0  0  0
   -2.1150    2.9648    1.3667 C   0  0  0  0  0  0  0  0  0  0  0  0
   -2.5480    3.4108    2.5950 O   0  0  0  0  0  0  0  0  0  0  0  0
   -1.7084    3.9167    0.4298 C   0  0  0  0  0  0  0  0  0  0  0  0
   -1.7487    5.2420    0.7664 O   0  0  0  0  0  0  0  0  0  0  0  0
   -1.2790    3.5173   -0.8331 C   0  0  0  0  0  0  0  0  0  0  0  0
   -0.8808    4.4514   -1.7497 O   0  0  0  0  0  0  0  0  0  0  0  0
   -1.2425    2.1608   -1.1586 C   0  0  0  0  0  0  0  0  0  0  0  0
   -1.8325   -4.4429   -0.5714 C   0  0  0  0  0  0  0  0  0  0  0  0
   -0.7828   -5.3166   -0.6192 O   0  0  0  0  0  0  0  0  0  0  0  0
   -3.0986   -5.0152   -0.6995 C   0  0  0  0  0  0  0  0  0  0  0  0
   -5.4169   -5.6838   -0.8464 H   0  0  0  0  0  0  0  0  0  0  0  0
   -4.9799   -2.1972   -0.4948 H   0  0  0  0  0  0  0  0  0  0  0  0
    0.2120   -2.4828   -1.2146 H   0  0  0  0  0  0  0  0  0  0  0  0
    0.2806   -2.9899    0.4728 H   0  0  0  0  0  0  0  0  0  0  0  0
   -0.6181   -0.9353    1.2900 H   0  0  0  0  0  0  0  0  0  0  0  0
    4.3620   -0.8664    1.6086 H   0  0  0  0  0  0  0  0  0  0  0  0
    6.5359   -0.2296    1.7911 H   0  0  0  0  0  0  0  0  0  0  0  0
    7.0419    2.3180    0.1475 H   0  0  0  0  0  0  0  0  0  0  0  0
    2.8852    3.7708   -1.3276 H   0  0  0  0  0  0  0  0  0  0  0  0
    1.8585    1.8684   -0.6256 H   0  0  0  0  0  0  0  0  0  0  0  0
   -1.3564   -0.3672   -1.6473 H   0  0  0  0  0  0  0  0  0  0  0  0
   -2.4096    0.8674    1.7829 H   0  0  0  0  0  0  0  0  0  0  0  0
   -2.7908    2.6424    3.1382 H   0  0  0  0  0  0  0  0  0  0  0  0
   -2.1102    5.2590    1.6742 H   0  0  0  0  0  0  0  0  0  0  0  0
   -1.0129    4.0919   -2.6418 H   0  0  0  0  0  0  0  0  0  0  0  0
   -0.8939    1.8513   -2.1415 H   0  0  0  0  0  0  0  0  0  0  0  0
    0.0505   -4.8585   -0.4236 H   0  0  0  0  0  0  0  0  0  0  0  0
   -3.1854   -6.0900   -0.8247 H   0  0  0  0  0  0  0  0  0  0  0  0
  1  2  1  0
  2  3  2  0
  3  4  1  0
  4  5  2  0
  5  6  1  0
  6  7  1  0
  7  8  1  0
  8  9  1  0
  9 10  2  0
  9 11  1  0
 11 12  2  0
 12 13  1  0
 13 14  1  0
 13 15  2  0
 15 16  1  0
 15 17  1  0
 17 18  1  0
 17 19  2  0
  7 20  1  0
 20 21  1  0
 20 22  1  0
 22 23  2  0
 23 24  1  0
 24 25  1  0
 24 26  2  0
 26 27  1  0
 26 28  1  0
 28 29  1  0
 28 30  2  0
  5 31  1  0
 31 32  1  0
 31 33  2  0
 33  2  1  0
 21  4  1  0
 30 22  1  0
 19 11  1  0
  1 34  1  0
  3 35  1  0
  6 36  1  0
  6 37  1  0
  7 38  1  0
 12 39  1  0
 14 40  1  0
 16 41  1  0
 18 42  1  0
 19 43  1  0
 20 44  1  0
 23 45  1  0
 25 46  1  0
 27 47  1  0
 29 48  1  0
 30 49  1  0
 32 50  1  0
 33 51  1  0
M  END
$$$$
