
     RDKit          3D

 49 52  0  0  0  0  0  0  0  0999 V2000
    2.7874   -1.3636   -0.6127 C   0  0  0  0  0  0  0  0  0  0  0  0
    2.3542   -0.4089    0.5292 C   0  0  0  0  0  0  0  0  0  0  0  0
    1.4510   -1.1635    1.5161 C   0  0  0  0  0  0  0  0  0  0  0  0
    0.0925   -1.5298    0.8889 C   0  0  0  0  0  0  0  0  0  0  0  0
   -0.6425   -0.3138    0.2685 C   0  0  0  0  0  0  0  0  0  0  0  0
    0.2973    0.4966   -0.6956 C   0  0  0  0  0  0  0  0  0  0  0  0
   -0.4005    1.7575   -1.2409 C   0  0  0  0  0  0  0  0  0  0  0  0
   -1.7615    1.4501   -1.8688 C   0  0  0  0  0  0  0  0  0  0  0  0
   -2.5992    0.6824   -0.8765 C   0  0  0  0  0  0  0  0  0  0  0  0
   -3.7023    1.2462   -0.3525 C   0  0  0  0  0  0  0  0  0  0  0  0
   -4.3773    0.6571    0.8277 C   0  0  0  0  0  0  0  0  0  0  0  0
   -5.4310    1.1419    1.2308 O   0  0  0  0  0  0  0  0  0  0  0  0
   -3.6690   -0.4605    1.5491 C   0  0  0  0  0  0  0  0  0  0  0  0
   -3.0156   -1.3811    0.5331 C   0  0  0  0  0  0  0  0  0  0  0  0
   -2.0143   -0.6596   -0.4157 C   0  0  0  0  0  0  0  0  0  0  0  0
   -1.8309   -1.6153   -1.6221 C   0  0  0  0  0  0  0  0  0  0  0  0
    1.5881    0.8441    0.0551 C   0  0  0  0  0  0  0  0  0  0  0  0
    2.6528    1.6671   -0.6625 C   0  0  0  0  0  0  0  0  0  0  0  0
    3.9456    1.3925    0.1291 C   0  0  0  0  0  0  0  0  0  0  0  0
    3.6252    0.2470    1.1116 C   0  0  0  0  0  0  0  0  0  0  0  0
    3.3897    0.8212    2.3934 O   0  0  0  0  0  0  0  0  0  0  0  0
    3.4317   -0.8747   -1.3501 H   0  0  0  0  0  0  0  0  0  0  0  0
    1.9413   -1.7842   -1.1620 H   0  0  0  0  0  0  0  0  0  0  0  0
    3.3558   -2.2069   -0.2026 H   0  0  0  0  0  0  0  0  0  0  0  0
    1.9490   -2.0730    1.8728 H   0  0  0  0  0  0  0  0  0  0  0  0
    1.2536   -0.5503    2.4041 H   0  0  0  0  0  0  0  0  0  0  0  0
    0.2364   -2.3131    0.1384 H   0  0  0  0  0  0  0  0  0  0  0  0
   -0.5201   -1.9718    1.6818 H   0  0  0  0  0  0  0  0  0  0  0  0
   -0.8661    0.3558    1.1141 H   0  0  0  0  0  0  0  0  0  0  0  0
    0.5542   -0.1236   -1.5607 H   0  0  0  0  0  0  0  0  0  0  0  0
   -0.5336    2.4838   -0.4279 H   0  0  0  0  0  0  0  0  0  0  0  0
    0.2333    2.2415   -1.9932 H   0  0  0  0  0  0  0  0  0  0  0  0
   -1.6412    0.8780   -2.7948 H   0  0  0  0  0  0  0  0  0  0  0  0
   -2.2418    2.3940   -2.1542 H   0  0  0  0  0  0  0  0  0  0  0  0
   -4.0919    2.2034   -0.6807 H   0  0  0  0  0  0  0  0  0  0  0  0
   -2.9407   -0.0334    2.2452 H   0  0  0  0  0  0  0  0  0  0  0  0
   -4.4084   -1.0251    2.1275 H   0  0  0  0  0  0  0  0  0  0  0  0
   -3.8224   -1.8250   -0.0695 H   0  0  0  0  0  0  0  0  0  0  0  0
   -2.5443   -2.2247    1.0470 H   0  0  0  0  0  0  0  0  0  0  0  0
   -2.7695   -1.7258   -2.1794 H   0  0  0  0  0  0  0  0  0  0  0  0
   -1.0791   -1.2739   -2.3379 H   0  0  0  0  0  0  0  0  0  0  0  0
   -1.5315   -2.6165   -1.2929 H   0  0  0  0  0  0  0  0  0  0  0  0
    1.2916    1.4314    0.9396 H   0  0  0  0  0  0  0  0  0  0  0  0
    2.7696    1.3535   -1.7059 H   0  0  0  0  0  0  0  0  0  0  0  0
    2.4101    2.7348   -0.6653 H   0  0  0  0  0  0  0  0  0  0  0  0
    4.7363    1.0945   -0.5685 H   0  0  0  0  0  0  0  0  0  0  0  0
    4.2798    2.2958    0.6510 H   0  0  0  0  0  0  0  0  0  0  0  0
    4.4696   -0.4442    1.2041 H   0  0  0  0  0  0  0  0  0  0  0  0
    3.3386    0.0921    3.0346 H   0  0  0  0  0  0  0  0  0  0  0  0
  1  2  1  0
  2  3  1  0
  3  4  1  0
  4  5  1  0
  5  6  1  0
  6  7  1  0
  7  8  1  0
  8  9  1  0
  9 10  2  0
 10 11  1  0
 11 12  2  0
 11 13  1  0
 13 14  1  0
 14 15  1  0
 15 16  1  0
  6 17  1  0
 17 18  1  0
 18 19  1  0
 19 20  1  0
 20 21  1  0
 17  2  1  0
 20  2  1  0
 15  5  1  0
 15  9  1  0
  1 22  1  0
  1 23  1  0
  1 24  1  0
  3 25  1  0
  3 26  1  0
  4 27  1  0
  4 28  1  0
  5 29  1  0
  6 30  1  0
  7 31  1  0
  7 32  1  0
  8 33  1  0
  8 34  1  0
 10 35  1  0
 13 36  1  0
 13 37  1  0
 14 38  1  0
 14 39  1  0
 16 40  1  0
 16 41  1  0
 16 42  1  0
 17 43  1  0
 18 44  1  0
 18 45  1  0
 19 46  1  0
 19 47  1  0
 20 48  1  0
 21 49  1  0
M  END
$$$$
