
     RDKit          3D

 49 52  0  0  0  0  0  0  0  0999 V2000
   -2.5882   -0.3405   -1.6076 C   0  0  0  0  0  0  0  0  0  0  0  0
   -2.4338    0.5254   -0.3364 C   0  0  0  0  0  0  0  0  0  0  0  0
   -1.6279    1.7939   -0.6508 C   0  0  0  0  0  0  0  0  0  0  0  0
   -0.1610    1.4640   -0.9658 C   0  0  0  0  0  0  0  0  0  0  0  0
    0.5578    0.6353    0.1343 C   0  0  0  0  0  0  0  0  0  0  0  0
   -0.2799   -0.5662    0.6758 C   0  0  0  0  0  0  0  0  0  0  0  0
    0.0237   -1.8380   -0.1075 C   0  0  0  0  0  0  0  0  0  0  0  0
    1.4773   -2.2667    0.1189 C   0  0  0  0  0  0  0  0  0  0  0  0
    2.4426   -1.1179    0.3285 C   0  0  0  0  0  0  0  0  0  0  0  0
    3.6002   -1.3480    0.9750 C   0  0  0  0  0  0  0  0  0  0  0  0
    4.6520   -0.3105    1.0926 C   0  0  0  0  0  0  0  0  0  0  0  0
    5.6822   -0.5626    1.7129 O   0  0  0  0  0  0  0  0  0  0  0  0
    4.4495    0.9920    0.3625 C   0  0  0  0  0  0  0  0  0  0  0  0
    2.9732    1.3600    0.3441 C   0  0  0  0  0  0  0  0  0  0  0  0
    2.0536    0.2469   -0.2456 C   0  0  0  0  0  0  0  0  0  0  0  0
    2.3021    0.1650   -1.7716 C   0  0  0  0  0  0  0  0  0  0  0  0
   -1.7500   -0.1687    0.8544 C   0  0  0  0  0  0  0  0  0  0  0  0
   -2.7641   -1.2120    1.3114 C   0  0  0  0  0  0  0  0  0  0  0  0
   -4.1303   -0.5450    1.0583 C   0  0  0  0  0  0  0  0  0  0  0  0
   -3.8505    0.7406    0.2522 C   0  0  0  0  0  0  0  0  0  0  0  0
   -3.8962    1.8423    1.1540 O   0  0  0  0  0  0  0  0  0  0  0  0
   -3.2041    0.1857   -2.3471 H   0  0  0  0  0  0  0  0  0  0  0  0
   -3.0764   -1.2996   -1.4094 H   0  0  0  0  0  0  0  0  0  0  0  0
   -1.6400   -0.5596   -2.0987 H   0  0  0  0  0  0  0  0  0  0  0  0
   -2.0754    2.3306   -1.4959 H   0  0  0  0  0  0  0  0  0  0  0  0
   -1.6414    2.4871    0.1993 H   0  0  0  0  0  0  0  0  0  0  0  0
   -0.1283    0.9429   -1.9263 H   0  0  0  0  0  0  0  0  0  0  0  0
    0.3799    2.4074   -1.1122 H   0  0  0  0  0  0  0  0  0  0  0  0
    0.6033    1.3196    0.9957 H   0  0  0  0  0  0  0  0  0  0  0  0
    0.0771   -0.7625    1.7000 H   0  0  0  0  0  0  0  0  0  0  0  0
   -0.6277   -2.6643    0.1942 H   0  0  0  0  0  0  0  0  0  0  0  0
   -0.1365   -1.6904   -1.1780 H   0  0  0  0  0  0  0  0  0  0  0  0
    1.5067   -2.9270    0.9959 H   0  0  0  0  0  0  0  0  0  0  0  0
    1.8049   -2.8661   -0.7394 H   0  0  0  0  0  0  0  0  0  0  0  0
    3.8594   -2.3180    1.3857 H   0  0  0  0  0  0  0  0  0  0  0  0
    5.0077    1.7746    0.8881 H   0  0  0  0  0  0  0  0  0  0  0  0
    4.8614    0.8998   -0.6470 H   0  0  0  0  0  0  0  0  0  0  0  0
    2.6793    1.5672    1.3830 H   0  0  0  0  0  0  0  0  0  0  0  0
    2.8370    2.2984   -0.2075 H   0  0  0  0  0  0  0  0  0  0  0  0
    2.2117    1.1467   -2.2495 H   0  0  0  0  0  0  0  0  0  0  0  0
    3.3089   -0.2042   -2.0008 H   0  0  0  0  0  0  0  0  0  0  0  0
    1.6011   -0.5166   -2.2649 H   0  0  0  0  0  0  0  0  0  0  0  0
   -1.7185    0.5703    1.6747 H   0  0  0  0  0  0  0  0  0  0  0  0
   -2.6342   -1.4681    2.3679 H   0  0  0  0  0  0  0  0  0  0  0  0
   -2.6979   -2.1408    0.7370 H   0  0  0  0  0  0  0  0  0  0  0  0
   -4.7624   -1.2308    0.4829 H   0  0  0  0  0  0  0  0  0  0  0  0
   -4.6389   -0.3315    2.0047 H   0  0  0  0  0  0  0  0  0  0  0  0
   -4.6196    0.9041   -0.5101 H   0  0  0  0  0  0  0  0  0  0  0  0
   -3.8693    2.6557    0.6220 H   0  0  0  0  0  0  0  0  0  0  0  0
  1  2  1  0
  2  3  1  0
  3  4  1  0
  4  5  1  0
  5  6  1  0
  6  7  1  0
  7  8  1  0
  8  9  1  0
  9 10  2  0
 10 11  1  0
 11 12  2  0
 11 13  1  0
 13 14  1  0
 14 15  1  0
 15 16  1  0
  6 17  1  0
 17 18  1  0
 18 19  1  0
 19 20  1  0
 20 21  1  0
 17  2  1  0
 20  2  1  0
 15  5  1  0
 15  9  1  0
  1 22  1  0
  1 23  1  0
  1 24  1  0
  3 25  1  0
  3 26  1  0
  4 27  1  0
  4 28  1  0
  5 29  1  0
  6 30  1  0
  7 31  1  0
  7 32  1  0
  8 33  1  0
  8 34  1  0
 10 35  1  0
 13 36  1  0
 13 37  1  0
 14 38  1  0
 14 39  1  0
 16 40  1  0
 16 41  1  0
 16 42  1  0
 17 43  1  0
 18 44  1  0
 18 45  1  0
 19 46  1  0
 19 47  1  0
 20 48  1  0
 21 49  1  0
M  END
$$$$
