
     RDKit          3D

 64 67  0  0  0  0  0  0  0  0999 V2000
    0.2381   -2.3700   -1.6145 C   0  0  0  0  0  0  0  0  0  0  0  0
    0.7245   -1.3577   -0.5413 C   0  0  0  0  0  0  0  0  0  0  0  0
    0.5909    0.0814   -1.0871 C   0  0  0  0  0  0  0  0  0  0  0  0
   -0.7163    0.8079   -0.6715 C   0  0  0  0  0  0  0  0  0  0  0  0
   -1.9130   -0.1444   -0.4498 C   0  0  0  0  0  0  0  0  0  0  0  0
   -1.5658   -1.1717    0.6820 C   0  0  0  0  0  0  0  0  0  0  0  0
   -0.0462   -1.4318    0.7830 C   0  0  0  0  0  0  0  0  0  0  0  0
    0.3800   -2.7570    1.4076 C   0  0  0  0  0  0  0  0  0  0  0  0
    1.8328   -2.9523    0.9499 C   0  0  0  0  0  0  0  0  0  0  0  0
    2.1363   -1.8398   -0.0862 C   0  0  0  0  0  0  0  0  0  0  0  0
    3.0308   -0.7575    0.5288 C   0  0  0  0  0  0  0  0  0  0  0  0
    3.0290   -0.4891    1.7244 O   0  0  0  0  0  0  0  0  0  0  0  0
    3.8128   -0.1070   -0.4056 N   0  0  0  0  0  0  0  0  0  0  0  0
    4.7491    0.9874   -0.1058 C   0  0  0  0  0  0  0  0  0  0  0  0
    5.8477    0.5212    0.8626 C   0  0  0  0  0  0  0  0  0  0  0  0
    4.0091    2.2015    0.4777 C   0  0  0  0  0  0  0  0  0  0  0  0
    5.4179    1.4158   -1.4254 C   0  0  0  0  0  0  0  0  0  0  0  0
   -2.0403   -0.7081    2.0728 C   0  0  0  0  0  0  0  0  0  0  0  0
   -3.5063   -0.3353    2.1022 C   0  0  0  0  0  0  0  0  0  0  0  0
   -3.7967    0.7580    1.1115 C   0  0  0  0  0  0  0  0  0  0  0  0
   -4.4767    1.8508    1.5050 C   0  0  0  0  0  0  0  0  0  0  0  0
   -4.9525    2.8654    0.5344 C   0  0  0  0  0  0  0  0  0  0  0  0
   -5.5594    3.8536    0.9398 O   0  0  0  0  0  0  0  0  0  0  0  0
   -4.7468    2.5919   -0.9334 C   0  0  0  0  0  0  0  0  0  0  0  0
   -3.4441    1.8299   -1.1374 C   0  0  0  0  0  0  0  0  0  0  0  0
   -3.3587    0.5034   -0.3285 C   0  0  0  0  0  0  0  0  0  0  0  0
   -4.3738   -0.5066   -0.9339 C   0  0  0  0  0  0  0  0  0  0  0  0
    0.2888   -3.4067   -1.2664 H   0  0  0  0  0  0  0  0  0  0  0  0
   -0.7877   -2.2041   -1.9417 H   0  0  0  0  0  0  0  0  0  0  0  0
    0.8709   -2.3043   -2.5081 H   0  0  0  0  0  0  0  0  0  0  0  0
    1.4108    0.7249   -0.7598 H   0  0  0  0  0  0  0  0  0  0  0  0
    0.6568    0.0680   -2.1829 H   0  0  0  0  0  0  0  0  0  0  0  0
   -0.9198    1.5315   -1.4667 H   0  0  0  0  0  0  0  0  0  0  0  0
   -0.5381    1.3859    0.2441 H   0  0  0  0  0  0  0  0  0  0  0  0
   -1.9643   -0.7078   -1.3881 H   0  0  0  0  0  0  0  0  0  0  0  0
   -2.0802   -2.1118    0.4427 H   0  0  0  0  0  0  0  0  0  0  0  0
    0.3701   -0.6460    1.4339 H   0  0  0  0  0  0  0  0  0  0  0  0
    0.3096   -2.7319    2.4997 H   0  0  0  0  0  0  0  0  0  0  0  0
   -0.2432   -3.5874    1.0574 H   0  0  0  0  0  0  0  0  0  0  0  0
    2.5184   -2.9405    1.8034 H   0  0  0  0  0  0  0  0  0  0  0  0
    1.9334   -3.9391    0.4827 H   0  0  0  0  0  0  0  0  0  0  0  0
    2.6966   -2.2820   -0.9207 H   0  0  0  0  0  0  0  0  0  0  0  0
    3.6967   -0.3675   -1.3765 H   0  0  0  0  0  0  0  0  0  0  0  0
    6.5993    1.3043    1.0148 H   0  0  0  0  0  0  0  0  0  0  0  0
    5.4447    0.2625    1.8471 H   0  0  0  0  0  0  0  0  0  0  0  0
    6.3609   -0.3670    0.4761 H   0  0  0  0  0  0  0  0  0  0  0  0
    4.6914    3.0462    0.6257 H   0  0  0  0  0  0  0  0  0  0  0  0
    3.5536    1.9774    1.4473 H   0  0  0  0  0  0  0  0  0  0  0  0
    3.2062    2.5316   -0.1911 H   0  0  0  0  0  0  0  0  0  0  0  0
    5.9538    0.5778   -1.8871 H   0  0  0  0  0  0  0  0  0  0  0  0
    4.6723    1.7636   -2.1507 H   0  0  0  0  0  0  0  0  0  0  0  0
    6.1363    2.2280   -1.2663 H   0  0  0  0  0  0  0  0  0  0  0  0
   -1.8647   -1.5049    2.8059 H   0  0  0  0  0  0  0  0  0  0  0  0
   -1.4506    0.1570    2.4052 H   0  0  0  0  0  0  0  0  0  0  0  0
   -4.1212   -1.2136    1.8724 H   0  0  0  0  0  0  0  0  0  0  0  0
   -3.7751   -0.0300    3.1212 H   0  0  0  0  0  0  0  0  0  0  0  0
   -4.7845    2.0152    2.5320 H   0  0  0  0  0  0  0  0  0  0  0  0
   -5.6115    2.0445   -1.3197 H   0  0  0  0  0  0  0  0  0  0  0  0
   -4.6873    3.5514   -1.4591 H   0  0  0  0  0  0  0  0  0  0  0  0
   -2.6452    2.5107   -0.8177 H   0  0  0  0  0  0  0  0  0  0  0  0
   -3.2957    1.6369   -2.2069 H   0  0  0  0  0  0  0  0  0  0  0  0
   -5.4123   -0.1924   -0.7815 H   0  0  0  0  0  0  0  0  0  0  0  0
   -4.2718   -1.5028   -0.4889 H   0  0  0  0  0  0  0  0  0  0  0  0
   -4.2196   -0.6173   -2.0136 H   0  0  0  0  0  0  0  0  0  0  0  0
  1  2  1  0
  2  3  1  0
  3  4  1  0
  4  5  1  0
  5  6  1  0
  6  7  1  0
  7  8  1  0
  8  9  1  0
  9 10  1  0
 10 11  1  0
 11 12  2  0
 11 13  1  0
 13 14  1  0
 14 15  1  0
 14 16  1  0
 14 17  1  0
  6 18  1  0
 18 19  1  0
 19 20  1  0
 20 21  2  0
 21 22  1  0
 22 23  2  0
 22 24  1  0
 24 25  1  0
 25 26  1  0
 26 27  1  0
  7  2  1  0
 10  2  1  0
 26  5  1  0
 26 20  1  0
  1 28  1  0
  1 29  1  0
  1 30  1  0
  3 31  1  0
  3 32  1  0
  4 33  1  0
  4 34  1  0
  5 35  1  0
  6 36  1  0
  7 37  1  0
  8 38  1  0
  8 39  1  0
  9 40  1  0
  9 41  1  0
 10 42  1  0
 13 43  1  0
 15 44  1  0
 15 45  1  0
 15 46  1  0
 16 47  1  0
 16 48  1  0
 16 49  1  0
 17 50  1  0
 17 51  1  0
 17 52  1  0
 18 53  1  0
 18 54  1  0
 19 55  1  0
 19 56  1  0
 21 57  1  0
 24 58  1  0
 24 59  1  0
 25 60  1  0
 25 61  1  0
 27 62  1  0
 27 63  1  0
 27 64  1  0
M  END
$$$$
