
     RDKit          3D

 64 67  0  0  0  0  0  0  0  0999 V2000
   -1.5455   -2.5802    0.4220 C   0  0  0  0  0  0  0  0  0  0  0  0
   -0.8177   -1.2287    0.2792 C   0  0  0  0  0  0  0  0  0  0  0  0
   -0.1017   -0.9250    1.6139 C   0  0  0  0  0  0  0  0  0  0  0  0
    1.1223   -0.0288    1.4318 C   0  0  0  0  0  0  0  0  0  0  0  0
    2.2284   -0.7596    0.6486 C   0  0  0  0  0  0  0  0  0  0  0  0
    1.6540   -1.6272   -0.5120 C   0  0  0  0  0  0  0  0  0  0  0  0
    0.1892   -1.3520   -0.9177 C   0  0  0  0  0  0  0  0  0  0  0  0
   -0.0594   -0.1209   -1.7886 C   0  0  0  0  0  0  0  0  0  0  0  0
   -1.5489    0.1198   -1.6286 C   0  0  0  0  0  0  0  0  0  0  0  0
   -1.7492   -0.0273   -0.1191 C   0  0  0  0  0  0  0  0  0  0  0  0
   -3.2332   -0.0578    0.2658 C   0  0  0  0  0  0  0  0  0  0  0  0
   -3.7526   -0.9432    0.9327 O   0  0  0  0  0  0  0  0  0  0  0  0
   -3.9239    1.0570   -0.1775 N   0  0  0  0  0  0  0  0  0  0  0  0
   -5.3440    1.3303    0.0946 C   0  0  0  0  0  0  0  0  0  0  0  0
   -6.2416    0.2091   -0.4530 C   0  0  0  0  0  0  0  0  0  0  0  0
   -5.7197    2.6387   -0.6263 C   0  0  0  0  0  0  0  0  0  0  0  0
   -5.5865    1.5169    1.5995 C   0  0  0  0  0  0  0  0  0  0  0  0
    2.5905   -1.7368   -1.7237 C   0  0  0  0  0  0  0  0  0  0  0  0
    4.0455   -1.8770   -1.2946 C   0  0  0  0  0  0  0  0  0  0  0  0
    4.5272   -0.7402   -0.4239 C   0  0  0  0  0  0  0  0  0  0  0  0
    5.8517   -0.5509   -0.2809 C   0  0  0  0  0  0  0  0  0  0  0  0
    6.4072    0.5148    0.5846 C   0  0  0  0  0  0  0  0  0  0  0  0
    7.6192    0.7180    0.5835 O   0  0  0  0  0  0  0  0  0  0  0  0
    5.4609    1.3507    1.4080 C   0  0  0  0  0  0  0  0  0  0  0  0
    4.1149    0.6614    1.6098 C   0  0  0  0  0  0  0  0  0  0  0  0
    3.4824    0.1215    0.2920 C   0  0  0  0  0  0  0  0  0  0  0  0
    3.1290    1.3295   -0.6046 C   0  0  0  0  0  0  0  0  0  0  0  0
   -2.2094   -2.7718   -0.4288 H   0  0  0  0  0  0  0  0  0  0  0  0
   -0.8242   -3.4061    0.4684 H   0  0  0  0  0  0  0  0  0  0  0  0
   -2.1325   -2.6347    1.3441 H   0  0  0  0  0  0  0  0  0  0  0  0
    0.2246   -1.8575    2.0933 H   0  0  0  0  0  0  0  0  0  0  0  0
   -0.8023   -0.4556    2.3154 H   0  0  0  0  0  0  0  0  0  0  0  0
    1.4942    0.2436    2.4261 H   0  0  0  0  0  0  0  0  0  0  0  0
    0.8357    0.9048    0.9410 H   0  0  0  0  0  0  0  0  0  0  0  0
    2.6154   -1.5073    1.3630 H   0  0  0  0  0  0  0  0  0  0  0  0
    1.6227   -2.6471   -0.0935 H   0  0  0  0  0  0  0  0  0  0  0  0
   -0.1212   -2.2075   -1.5382 H   0  0  0  0  0  0  0  0  0  0  0  0
    0.2102   -0.2878   -2.8360 H   0  0  0  0  0  0  0  0  0  0  0  0
    0.4889    0.7518   -1.4274 H   0  0  0  0  0  0  0  0  0  0  0  0
   -2.1332   -0.6276   -2.1787 H   0  0  0  0  0  0  0  0  0  0  0  0
   -1.8311    1.1090   -2.0007 H   0  0  0  0  0  0  0  0  0  0  0  0
   -1.3570    0.8862    0.3513 H   0  0  0  0  0  0  0  0  0  0  0  0
   -3.3695    1.8313   -0.5162 H   0  0  0  0  0  0  0  0  0  0  0  0
   -7.3015    0.4679   -0.3517 H   0  0  0  0  0  0  0  0  0  0  0  0
   -6.0397    0.0275   -1.5154 H   0  0  0  0  0  0  0  0  0  0  0  0
   -6.0883   -0.7369    0.0753 H   0  0  0  0  0  0  0  0  0  0  0  0
   -5.5424    2.5592   -1.7055 H   0  0  0  0  0  0  0  0  0  0  0  0
   -6.7755    2.8916   -0.4759 H   0  0  0  0  0  0  0  0  0  0  0  0
   -5.1182    3.4790   -0.2587 H   0  0  0  0  0  0  0  0  0  0  0  0
   -6.6272    1.7974    1.8004 H   0  0  0  0  0  0  0  0  0  0  0  0
   -5.3807    0.6010    2.1630 H   0  0  0  0  0  0  0  0  0  0  0  0
   -4.9403    2.3030    2.0072 H   0  0  0  0  0  0  0  0  0  0  0  0
    2.4878   -0.8802   -2.3953 H   0  0  0  0  0  0  0  0  0  0  0  0
    2.3081   -2.6151   -2.3179 H   0  0  0  0  0  0  0  0  0  0  0  0
    4.6711   -1.9574   -2.1925 H   0  0  0  0  0  0  0  0  0  0  0  0
    4.1584   -2.8155   -0.7367 H   0  0  0  0  0  0  0  0  0  0  0  0
    6.5881   -1.1652   -0.7883 H   0  0  0  0  0  0  0  0  0  0  0  0
    5.3391    2.3208    0.9156 H   0  0  0  0  0  0  0  0  0  0  0  0
    5.9197    1.5252    2.3878 H   0  0  0  0  0  0  0  0  0  0  0  0
    4.2596   -0.1710    2.3136 H   0  0  0  0  0  0  0  0  0  0  0  0
    3.4389    1.3703    2.1028 H   0  0  0  0  0  0  0  0  0  0  0  0
    2.4676    2.0330   -0.0886 H   0  0  0  0  0  0  0  0  0  0  0  0
    4.0219    1.8923   -0.9014 H   0  0  0  0  0  0  0  0  0  0  0  0
    2.6436    1.0396   -1.5364 H   0  0  0  0  0  0  0  0  0  0  0  0
  1  2  1  0
  2  3  1  0
  3  4  1  0
  4  5  1  0
  5  6  1  0
  6  7  1  0
  7  8  1  0
  8  9  1  0
  9 10  1  0
 10 11  1  0
 11 12  2  0
 11 13  1  0
 13 14  1  0
 14 15  1  0
 14 16  1  0
 14 17  1  0
  6 18  1  0
 18 19  1  0
 19 20  1  0
 20 21  2  0
 21 22  1  0
 22 23  2  0
 22 24  1  0
 24 25  1  0
 25 26  1  0
 26 27  1  0
  7  2  1  0
 10  2  1  0
 26  5  1  0
 26 20  1  0
  1 28  1  0
  1 29  1  0
  1 30  1  0
  3 31  1  0
  3 32  1  0
  4 33  1  0
  4 34  1  0
  5 35  1  0
  6 36  1  0
  7 37  1  0
  8 38  1  0
  8 39  1  0
  9 40  1  0
  9 41  1  0
 10 42  1  0
 13 43  1  0
 15 44  1  0
 15 45  1  0
 15 46  1  0
 16 47  1  0
 16 48  1  0
 16 49  1  0
 17 50  1  0
 17 51  1  0
 17 52  1  0
 18 53  1  0
 18 54  1  0
 19 55  1  0
 19 56  1  0
 21 57  1  0
 24 58  1  0
 24 59  1  0
 25 60  1  0
 25 61  1  0
 27 62  1  0
 27 63  1  0
 27 64  1  0
M  END
$$$$
