
     RDKit          3D

 64 67  0  0  0  0  0  0  0  0999 V2000
    0.7078    0.3661    1.5859 C   0  0  0  0  0  0  0  0  0  0  0  0
    0.7741   -0.6389    0.4159 C   0  0  0  0  0  0  0  0  0  0  0  0
    0.5431    0.0915   -0.9146 C   0  0  0  0  0  0  0  0  0  0  0  0
   -0.9148    0.5569   -1.0862 C   0  0  0  0  0  0  0  0  0  0  0  0
   -1.9712   -0.5696   -0.9073 C   0  0  0  0  0  0  0  0  0  0  0  0
   -1.7285   -1.4090    0.3836 C   0  0  0  0  0  0  0  0  0  0  0  0
   -0.2462   -1.7920    0.4867 C   0  0  0  0  0  0  0  0  0  0  0  0
    0.2336   -2.6529    1.6476 C   0  0  0  0  0  0  0  0  0  0  0  0
    1.7663   -2.5626    1.5557 C   0  0  0  0  0  0  0  0  0  0  0  0
    2.0873   -1.4704    0.5025 C   0  0  0  0  0  0  0  0  0  0  0  0
    3.3529   -0.6774    0.8249 C   0  0  0  0  0  0  0  0  0  0  0  0
    3.9422   -0.7661    1.8953 O   0  0  0  0  0  0  0  0  0  0  0  0
    3.7537    0.1457   -0.2078 N   0  0  0  0  0  0  0  0  0  0  0  0
    4.9486    1.0033   -0.1834 C   0  0  0  0  0  0  0  0  0  0  0  0
    4.9962    1.7861   -1.5089 C   0  0  0  0  0  0  0  0  0  0  0  0
    4.8788    2.0185    0.9690 C   0  0  0  0  0  0  0  0  0  0  0  0
    6.2260    0.1578   -0.0692 C   0  0  0  0  0  0  0  0  0  0  0  0
   -2.4008   -0.8405    1.6480 C   0  0  0  0  0  0  0  0  0  0  0  0
   -3.0900    0.5181    1.4988 C   0  0  0  0  0  0  0  0  0  0  0  0
   -3.8457    0.7425    0.2135 C   0  0  0  0  0  0  0  0  0  0  0  0
   -4.7847    1.7055    0.1599 C   0  0  0  0  0  0  0  0  0  0  0  0
   -5.5127    2.0295   -1.0918 C   0  0  0  0  0  0  0  0  0  0  0  0
   -6.4357    2.8405   -1.0547 O   0  0  0  0  0  0  0  0  0  0  0  0
   -5.1154    1.3312   -2.3713 C   0  0  0  0  0  0  0  0  0  0  0  0
   -3.7056    0.7504   -2.2829 C   0  0  0  0  0  0  0  0  0  0  0  0
   -3.4673   -0.0927   -1.0002 C   0  0  0  0  0  0  0  0  0  0  0  0
   -4.4009   -1.3337   -1.0497 C   0  0  0  0  0  0  0  0  0  0  0  0
    1.4835    1.1338    1.4857 H   0  0  0  0  0  0  0  0  0  0  0  0
    0.8511   -0.1122    2.5598 H   0  0  0  0  0  0  0  0  0  0  0  0
   -0.2391    0.9008    1.6246 H   0  0  0  0  0  0  0  0  0  0  0  0
    0.7967   -0.5696   -1.7535 H   0  0  0  0  0  0  0  0  0  0  0  0
    1.2024    0.9631   -0.9993 H   0  0  0  0  0  0  0  0  0  0  0  0
   -1.1147    1.3882   -0.4036 H   0  0  0  0  0  0  0  0  0  0  0  0
   -0.9915    0.9709   -2.0980 H   0  0  0  0  0  0  0  0  0  0  0  0
   -1.8050   -1.2525   -1.7554 H   0  0  0  0  0  0  0  0  0  0  0  0
   -2.2286   -2.3756    0.2194 H   0  0  0  0  0  0  0  0  0  0  0  0
   -0.0752   -2.4153   -0.4101 H   0  0  0  0  0  0  0  0  0  0  0  0
   -0.1030   -2.2782    2.6186 H   0  0  0  0  0  0  0  0  0  0  0  0
   -0.1121   -3.6878    1.5568 H   0  0  0  0  0  0  0  0  0  0  0  0
    2.1906   -3.5218    1.2371 H   0  0  0  0  0  0  0  0  0  0  0  0
    2.1821   -2.3441    2.5450 H   0  0  0  0  0  0  0  0  0  0  0  0
    2.2679   -1.9810   -0.4550 H   0  0  0  0  0  0  0  0  0  0  0  0
    3.3164   -0.0039   -1.1075 H   0  0  0  0  0  0  0  0  0  0  0  0
    5.0522    1.1065   -2.3674 H   0  0  0  0  0  0  0  0  0  0  0  0
    5.8654    2.4518   -1.5510 H   0  0  0  0  0  0  0  0  0  0  0  0
    4.0957    2.3981   -1.6377 H   0  0  0  0  0  0  0  0  0  0  0  0
    5.7153    2.7252    0.9239 H   0  0  0  0  0  0  0  0  0  0  0  0
    4.9192    1.5331    1.9489 H   0  0  0  0  0  0  0  0  0  0  0  0
    3.9477    2.5955    0.9282 H   0  0  0  0  0  0  0  0  0  0  0  0
    7.1224    0.7849   -0.1326 H   0  0  0  0  0  0  0  0  0  0  0  0
    6.2777   -0.5862   -0.8724 H   0  0  0  0  0  0  0  0  0  0  0  0
    6.2733   -0.3848    0.8805 H   0  0  0  0  0  0  0  0  0  0  0  0
   -1.7024   -0.7831    2.4882 H   0  0  0  0  0  0  0  0  0  0  0  0
   -3.1633   -1.5628    1.9723 H   0  0  0  0  0  0  0  0  0  0  0  0
   -2.3378    1.3097    1.5818 H   0  0  0  0  0  0  0  0  0  0  0  0
   -3.7612    0.6543    2.3571 H   0  0  0  0  0  0  0  0  0  0  0  0
   -5.0529    2.3091    1.0206 H   0  0  0  0  0  0  0  0  0  0  0  0
   -5.8567    0.5573   -2.5917 H   0  0  0  0  0  0  0  0  0  0  0  0
   -5.1456    2.0646   -3.1851 H   0  0  0  0  0  0  0  0  0  0  0  0
   -3.0140    1.6012   -2.3100 H   0  0  0  0  0  0  0  0  0  0  0  0
   -3.5009    0.1506   -3.1782 H   0  0  0  0  0  0  0  0  0  0  0  0
   -4.3370   -1.9482   -0.1469 H   0  0  0  0  0  0  0  0  0  0  0  0
   -4.1531   -1.9711   -1.9060 H   0  0  0  0  0  0  0  0  0  0  0  0
   -5.4570   -1.0583   -1.1397 H   0  0  0  0  0  0  0  0  0  0  0  0
  1  2  1  0
  2  3  1  0
  3  4  1  0
  4  5  1  0
  5  6  1  0
  6  7  1  0
  7  8  1  0
  8  9  1  0
  9 10  1  0
 10 11  1  0
 11 12  2  0
 11 13  1  0
 13 14  1  0
 14 15  1  0
 14 16  1  0
 14 17  1  0
  6 18  1  0
 18 19  1  0
 19 20  1  0
 20 21  2  0
 21 22  1  0
 22 23  2  0
 22 24  1  0
 24 25  1  0
 25 26  1  0
 26 27  1  0
  7  2  1  0
 10  2  1  0
 26  5  1  0
 26 20  1  0
  1 28  1  0
  1 29  1  0
  1 30  1  0
  3 31  1  0
  3 32  1  0
  4 33  1  0
  4 34  1  0
  5 35  1  0
  6 36  1  0
  7 37  1  0
  8 38  1  0
  8 39  1  0
  9 40  1  0
  9 41  1  0
 10 42  1  0
 13 43  1  0
 15 44  1  0
 15 45  1  0
 15 46  1  0
 16 47  1  0
 16 48  1  0
 16 49  1  0
 17 50  1  0
 17 51  1  0
 17 52  1  0
 18 53  1  0
 18 54  1  0
 19 55  1  0
 19 56  1  0
 21 57  1  0
 24 58  1  0
 24 59  1  0
 25 60  1  0
 25 61  1  0
 27 62  1  0
 27 63  1  0
 27 64  1  0
M  END
$$$$
