
     RDKit          3D

 64 67  0  0  0  0  0  0  0  0999 V2000
    1.5336    0.1059   -2.0539 C   0  0  0  0  0  0  0  0  0  0  0  0
    0.9388   -0.3865   -0.7190 C   0  0  0  0  0  0  0  0  0  0  0  0
    0.5228    0.8529    0.1178 C   0  0  0  0  0  0  0  0  0  0  0  0
   -0.8457    0.7486    0.7895 C   0  0  0  0  0  0  0  0  0  0  0  0
   -1.9671    0.5085   -0.2394 C   0  0  0  0  0  0  0  0  0  0  0  0
   -1.5954   -0.6088   -1.2602 C   0  0  0  0  0  0  0  0  0  0  0  0
   -0.2613   -1.3373   -0.9913 C   0  0  0  0  0  0  0  0  0  0  0  0
   -0.2779   -2.3490    0.1690 C   0  0  0  0  0  0  0  0  0  0  0  0
    1.0290   -2.1671    0.9303 C   0  0  0  0  0  0  0  0  0  0  0  0
    1.9268   -1.3454    0.0078 C   0  0  0  0  0  0  0  0  0  0  0  0
    3.0836   -0.6893    0.7621 C   0  0  0  0  0  0  0  0  0  0  0  0
    3.1378   -0.6452    1.9859 O   0  0  0  0  0  0  0  0  0  0  0  0
    4.0472   -0.1555   -0.0675 N   0  0  0  0  0  0  0  0  0  0  0  0
    5.2789    0.5047    0.3920 C   0  0  0  0  0  0  0  0  0  0  0  0
    4.9609    1.7208    1.2776 C   0  0  0  0  0  0  0  0  0  0  0  0
    6.1776   -0.4836    1.1504 C   0  0  0  0  0  0  0  0  0  0  0  0
    6.0385    1.0047   -0.8510 C   0  0  0  0  0  0  0  0  0  0  0  0
   -2.7375   -1.5841   -1.5661 C   0  0  0  0  0  0  0  0  0  0  0  0
   -4.0437   -0.8433   -1.8169 C   0  0  0  0  0  0  0  0  0  0  0  0
   -4.4393    0.0987   -0.7056 C   0  0  0  0  0  0  0  0  0  0  0  0
   -5.6741    0.6340   -0.7363 C   0  0  0  0  0  0  0  0  0  0  0  0
   -6.1582    1.5708    0.3031 C   0  0  0  0  0  0  0  0  0  0  0  0
   -7.3150    1.9826    0.2489 O   0  0  0  0  0  0  0  0  0  0  0  0
   -5.2267    1.9450    1.4254 C   0  0  0  0  0  0  0  0  0  0  0  0
   -3.7676    1.8127    1.0032 C   0  0  0  0  0  0  0  0  0  0  0  0
   -3.4133    0.4235    0.3842 C   0  0  0  0  0  0  0  0  0  0  0  0
   -3.5202   -0.6357    1.5050 C   0  0  0  0  0  0  0  0  0  0  0  0
    1.9286   -0.7248   -2.6490 H   0  0  0  0  0  0  0  0  0  0  0  0
    0.7761    0.6126   -2.6620 H   0  0  0  0  0  0  0  0  0  0  0  0
    2.3462    0.8216   -1.8944 H   0  0  0  0  0  0  0  0  0  0  0  0
    0.4938    1.7402   -0.5298 H   0  0  0  0  0  0  0  0  0  0  0  0
    1.2710    1.0893    0.8810 H   0  0  0  0  0  0  0  0  0  0  0  0
   -0.8281   -0.0321    1.5534 H   0  0  0  0  0  0  0  0  0  0  0  0
   -1.0248    1.6886    1.3231 H   0  0  0  0  0  0  0  0  0  0  0  0
   -1.9802    1.4258   -0.8524 H   0  0  0  0  0  0  0  0  0  0  0  0
   -1.4315   -0.0723   -2.2086 H   0  0  0  0  0  0  0  0  0  0  0  0
   -0.0314   -1.9230   -1.8950 H   0  0  0  0  0  0  0  0  0  0  0  0
   -1.1221   -2.2245    0.8485 H   0  0  0  0  0  0  0  0  0  0  0  0
   -0.3453   -3.3677   -0.2313 H   0  0  0  0  0  0  0  0  0  0  0  0
    1.4844   -3.1305    1.1844 H   0  0  0  0  0  0  0  0  0  0  0  0
    0.8374   -1.6493    1.8772 H   0  0  0  0  0  0  0  0  0  0  0  0
    2.3703   -2.0400   -0.7210 H   0  0  0  0  0  0  0  0  0  0  0  0
    4.0222   -0.4459   -1.0360 H   0  0  0  0  0  0  0  0  0  0  0  0
    5.8719    2.2762    1.5278 H   0  0  0  0  0  0  0  0  0  0  0  0
    4.4908    1.4317    2.2227 H   0  0  0  0  0  0  0  0  0  0  0  0
    4.2758    2.4086    0.7685 H   0  0  0  0  0  0  0  0  0  0  0  0
    5.7079   -0.8361    2.0744 H   0  0  0  0  0  0  0  0  0  0  0  0
    6.3947   -1.3665    0.5381 H   0  0  0  0  0  0  0  0  0  0  0  0
    7.1321   -0.0204    1.4242 H   0  0  0  0  0  0  0  0  0  0  0  0
    5.4280    1.7089   -1.4288 H   0  0  0  0  0  0  0  0  0  0  0  0
    6.9693    1.5127   -0.5751 H   0  0  0  0  0  0  0  0  0  0  0  0
    6.2949    0.1738   -1.5186 H   0  0  0  0  0  0  0  0  0  0  0  0
   -2.8711   -2.3174   -0.7661 H   0  0  0  0  0  0  0  0  0  0  0  0
   -2.4856   -2.1678   -2.4609 H   0  0  0  0  0  0  0  0  0  0  0  0
   -4.8379   -1.5814   -1.9838 H   0  0  0  0  0  0  0  0  0  0  0  0
   -3.9428   -0.2629   -2.7433 H   0  0  0  0  0  0  0  0  0  0  0  0
   -6.3901    0.4029   -1.5182 H   0  0  0  0  0  0  0  0  0  0  0  0
   -5.4535    1.3152    2.2911 H   0  0  0  0  0  0  0  0  0  0  0  0
   -5.4232    2.9863    1.7038 H   0  0  0  0  0  0  0  0  0  0  0  0
   -3.5520    2.6039    0.2713 H   0  0  0  0  0  0  0  0  0  0  0  0
   -3.1399    2.0202    1.8777 H   0  0  0  0  0  0  0  0  0  0  0  0
   -3.1944   -1.6262    1.1879 H   0  0  0  0  0  0  0  0  0  0  0  0
   -4.5528   -0.7552    1.8534 H   0  0  0  0  0  0  0  0  0  0  0  0
   -2.9212   -0.3571    2.3786 H   0  0  0  0  0  0  0  0  0  0  0  0
  1  2  1  0
  2  3  1  0
  3  4  1  0
  4  5  1  0
  5  6  1  0
  6  7  1  0
  7  8  1  0
  8  9  1  0
  9 10  1  0
 10 11  1  0
 11 12  2  0
 11 13  1  0
 13 14  1  0
 14 15  1  0
 14 16  1  0
 14 17  1  0
  6 18  1  0
 18 19  1  0
 19 20  1  0
 20 21  2  0
 21 22  1  0
 22 23  2  0
 22 24  1  0
 24 25  1  0
 25 26  1  0
 26 27  1  0
  7  2  1  0
 10  2  1  0
 26  5  1  0
 26 20  1  0
  1 28  1  0
  1 29  1  0
  1 30  1  0
  3 31  1  0
  3 32  1  0
  4 33  1  0
  4 34  1  0
  5 35  1  0
  6 36  1  0
  7 37  1  0
  8 38  1  0
  8 39  1  0
  9 40  1  0
  9 41  1  0
 10 42  1  0
 13 43  1  0
 15 44  1  0
 15 45  1  0
 15 46  1  0
 16 47  1  0
 16 48  1  0
 16 49  1  0
 17 50  1  0
 17 51  1  0
 17 52  1  0
 18 53  1  0
 18 54  1  0
 19 55  1  0
 19 56  1  0
 21 57  1  0
 24 58  1  0
 24 59  1  0
 25 60  1  0
 25 61  1  0
 27 62  1  0
 27 63  1  0
 27 64  1  0
M  END
$$$$
