
     RDKit          3D

 64 67  0  0  0  0  0  0  0  0999 V2000
    0.8405   -2.1220   -0.1399 C   0  0  0  0  0  0  0  0  0  0  0  0
    0.7191   -0.5889   -0.1392 C   0  0  0  0  0  0  0  0  0  0  0  0
    0.2237   -0.0802    1.2373 C   0  0  0  0  0  0  0  0  0  0  0  0
   -1.2421   -0.4129    1.5100 C   0  0  0  0  0  0  0  0  0  0  0  0
   -2.1905    0.1242    0.4221 C   0  0  0  0  0  0  0  0  0  0  0  0
   -1.7368   -0.3345   -0.9868 C   0  0  0  0  0  0  0  0  0  0  0  0
   -0.2325   -0.0983   -1.2604 C   0  0  0  0  0  0  0  0  0  0  0  0
    0.1806    1.3723   -1.4633 C   0  0  0  0  0  0  0  0  0  0  0  0
    1.6541    1.4624   -1.0662 C   0  0  0  0  0  0  0  0  0  0  0  0
    2.0555    0.0580   -0.5989 C   0  0  0  0  0  0  0  0  0  0  0  0
    3.2143    0.0828    0.3978 C   0  0  0  0  0  0  0  0  0  0  0  0
    3.1647   -0.4246    1.5105 O   0  0  0  0  0  0  0  0  0  0  0  0
    4.3432    0.6981   -0.1114 N   0  0  0  0  0  0  0  0  0  0  0  0
    5.6277    0.8154    0.5965 C   0  0  0  0  0  0  0  0  0  0  0  0
    6.6037    1.5800   -0.3157 C   0  0  0  0  0  0  0  0  0  0  0  0
    6.2214   -0.5710    0.8907 C   0  0  0  0  0  0  0  0  0  0  0  0
    5.4676    1.6099    1.9033 C   0  0  0  0  0  0  0  0  0  0  0  0
   -2.6140    0.2709   -2.1120 C   0  0  0  0  0  0  0  0  0  0  0  0
   -3.9686    0.7943   -1.6390 C   0  0  0  0  0  0  0  0  0  0  0  0
   -4.5270   -0.1210   -0.5904 C   0  0  0  0  0  0  0  0  0  0  0  0
   -5.6225   -0.8590   -0.8388 C   0  0  0  0  0  0  0  0  0  0  0  0
   -6.1452   -1.8285    0.1502 C   0  0  0  0  0  0  0  0  0  0  0  0
   -7.1965   -2.4179   -0.0885 O   0  0  0  0  0  0  0  0  0  0  0  0
   -5.3869   -2.0276    1.4380 C   0  0  0  0  0  0  0  0  0  0  0  0
   -3.9198   -1.6234    1.3051 C   0  0  0  0  0  0  0  0  0  0  0  0
   -3.7169   -0.2062    0.7040 C   0  0  0  0  0  0  0  0  0  0  0  0
   -4.2624    0.8517    1.6939 C   0  0  0  0  0  0  0  0  0  0  0  0
   -0.1173   -2.6116    0.0552 H   0  0  0  0  0  0  0  0  0  0  0  0
    1.5484   -2.4623    0.6233 H   0  0  0  0  0  0  0  0  0  0  0  0
    1.1976   -2.4911   -1.1083 H   0  0  0  0  0  0  0  0  0  0  0  0
    0.3543    1.0052    1.3232 H   0  0  0  0  0  0  0  0  0  0  0  0
    0.8178   -0.5216    2.0453 H   0  0  0  0  0  0  0  0  0  0  0  0
   -1.5186    0.0071    2.4841 H   0  0  0  0  0  0  0  0  0  0  0  0
   -1.3331   -1.5002    1.6018 H   0  0  0  0  0  0  0  0  0  0  0  0
   -2.0861    1.2190    0.4397 H   0  0  0  0  0  0  0  0  0  0  0  0
   -1.8914   -1.4226   -1.0246 H   0  0  0  0  0  0  0  0  0  0  0  0
    0.0163   -0.6314   -2.1911 H   0  0  0  0  0  0  0  0  0  0  0  0
   -0.4098    2.0582   -0.8468 H   0  0  0  0  0  0  0  0  0  0  0  0
    0.0500    1.6797   -2.5066 H   0  0  0  0  0  0  0  0  0  0  0  0
    2.2673    1.7833   -1.9163 H   0  0  0  0  0  0  0  0  0  0  0  0
    1.7885    2.2100   -0.2753 H   0  0  0  0  0  0  0  0  0  0  0  0
    2.4240   -0.4962   -1.4759 H   0  0  0  0  0  0  0  0  0  0  0  0
    4.3436    0.9094   -1.1005 H   0  0  0  0  0  0  0  0  0  0  0  0
    6.7721    1.0379   -1.2530 H   0  0  0  0  0  0  0  0  0  0  0  0
    7.5764    1.7226    0.1674 H   0  0  0  0  0  0  0  0  0  0  0  0
    6.2094    2.5674   -0.5781 H   0  0  0  0  0  0  0  0  0  0  0  0
    6.2909   -1.1729   -0.0220 H   0  0  0  0  0  0  0  0  0  0  0  0
    5.6113   -1.1332    1.6043 H   0  0  0  0  0  0  0  0  0  0  0  0
    7.2270   -0.4874    1.3191 H   0  0  0  0  0  0  0  0  0  0  0  0
    4.8400    1.0818    2.6293 H   0  0  0  0  0  0  0  0  0  0  0  0
    5.0024    2.5858    1.7172 H   0  0  0  0  0  0  0  0  0  0  0  0
    6.4384    1.7853    2.3809 H   0  0  0  0  0  0  0  0  0  0  0  0
   -2.1099    1.0897   -2.6342 H   0  0  0  0  0  0  0  0  0  0  0  0
   -2.7703   -0.5051   -2.8741 H   0  0  0  0  0  0  0  0  0  0  0  0
   -3.8618    1.8039   -1.2235 H   0  0  0  0  0  0  0  0  0  0  0  0
   -4.6407    0.8924   -2.5001 H   0  0  0  0  0  0  0  0  0  0  0  0
   -6.1738   -0.8002   -1.7704 H   0  0  0  0  0  0  0  0  0  0  0  0
   -5.8878   -1.4522    2.2238 H   0  0  0  0  0  0  0  0  0  0  0  0
   -5.4401   -3.0879    1.7095 H   0  0  0  0  0  0  0  0  0  0  0  0
   -3.4124   -2.3647    0.6722 H   0  0  0  0  0  0  0  0  0  0  0  0
   -3.4662   -1.6933    2.3009 H   0  0  0  0  0  0  0  0  0  0  0  0
   -5.3417    0.7534    1.8534 H   0  0  0  0  0  0  0  0  0  0  0  0
   -4.0931    1.8701    1.3257 H   0  0  0  0  0  0  0  0  0  0  0  0
   -3.7762    0.7678    2.6719 H   0  0  0  0  0  0  0  0  0  0  0  0
  1  2  1  0
  2  3  1  0
  3  4  1  0
  4  5  1  0
  5  6  1  0
  6  7  1  0
  7  8  1  0
  8  9  1  0
  9 10  1  0
 10 11  1  0
 11 12  2  0
 11 13  1  0
 13 14  1  0
 14 15  1  0
 14 16  1  0
 14 17  1  0
  6 18  1  0
 18 19  1  0
 19 20  1  0
 20 21  2  0
 21 22  1  0
 22 23  2  0
 22 24  1  0
 24 25  1  0
 25 26  1  0
 26 27  1  0
  7  2  1  0
 10  2  1  0
 26  5  1  0
 26 20  1  0
  1 28  1  0
  1 29  1  0
  1 30  1  0
  3 31  1  0
  3 32  1  0
  4 33  1  0
  4 34  1  0
  5 35  1  0
  6 36  1  0
  7 37  1  0
  8 38  1  0
  8 39  1  0
  9 40  1  0
  9 41  1  0
 10 42  1  0
 13 43  1  0
 15 44  1  0
 15 45  1  0
 15 46  1  0
 16 47  1  0
 16 48  1  0
 16 49  1  0
 17 50  1  0
 17 51  1  0
 17 52  1  0
 18 53  1  0
 18 54  1  0
 19 55  1  0
 19 56  1  0
 21 57  1  0
 24 58  1  0
 24 59  1  0
 25 60  1  0
 25 61  1  0
 27 62  1  0
 27 63  1  0
 27 64  1  0
M  END
$$$$
