
     RDKit          3D

 64 67  0  0  0  0  0  0  0  0999 V2000
   -0.5079    2.1923    1.3928 C   0  0  0  0  0  0  0  0  0  0  0  0
   -0.5585    0.7595    0.8222 C   0  0  0  0  0  0  0  0  0  0  0  0
   -0.1855    0.7987   -0.6742 C   0  0  0  0  0  0  0  0  0  0  0  0
    1.2894    1.1039   -0.9729 C   0  0  0  0  0  0  0  0  0  0  0  0
    2.2904    0.6554    0.1146 C   0  0  0  0  0  0  0  0  0  0  0  0
    1.7317   -0.5685    0.8719 C   0  0  0  0  0  0  0  0  0  0  0  0
    0.4124   -0.1970    1.6021 C   0  0  0  0  0  0  0  0  0  0  0  0
   -0.4280   -1.4045    2.0491 C   0  0  0  0  0  0  0  0  0  0  0  0
   -1.6985   -1.3458    1.2197 C   0  0  0  0  0  0  0  0  0  0  0  0
   -1.9699    0.1540    1.1191 C   0  0  0  0  0  0  0  0  0  0  0  0
   -3.1212    0.5025    0.1710 C   0  0  0  0  0  0  0  0  0  0  0  0
   -3.0513    1.3722   -0.6879 O   0  0  0  0  0  0  0  0  0  0  0  0
   -4.2788   -0.2059    0.4341 N   0  0  0  0  0  0  0  0  0  0  0  0
   -5.5591   -0.0118   -0.2659 C   0  0  0  0  0  0  0  0  0  0  0  0
   -5.4113   -0.2572   -1.7765 C   0  0  0  0  0  0  0  0  0  0  0  0
   -6.1139    1.3976   -0.0090 C   0  0  0  0  0  0  0  0  0  0  0  0
   -6.5619   -1.0408    0.2891 C   0  0  0  0  0  0  0  0  0  0  0  0
    1.6877   -1.8197   -0.0410 C   0  0  0  0  0  0  0  0  0  0  0  0
    2.7783   -1.8464   -1.1210 C   0  0  0  0  0  0  0  0  0  0  0  0
    3.9947   -1.0821   -0.6746 C   0  0  0  0  0  0  0  0  0  0  0  0
    5.1654   -1.7107   -0.4720 C   0  0  0  0  0  0  0  0  0  0  0  0
    6.3475   -1.0004    0.0703 C   0  0  0  0  0  0  0  0  0  0  0  0
    7.4251   -1.5895    0.1291 O   0  0  0  0  0  0  0  0  0  0  0  0
    6.1986    0.4359    0.5103 C   0  0  0  0  0  0  0  0  0  0  0  0
    4.7418    0.8077    0.7741 C   0  0  0  0  0  0  0  0  0  0  0  0
    3.7735    0.4014   -0.3764 C   0  0  0  0  0  0  0  0  0  0  0  0
    4.1209    1.2351   -1.6304 C   0  0  0  0  0  0  0  0  0  0  0  0
    0.4788    2.6493    1.2789 H   0  0  0  0  0  0  0  0  0  0  0  0
   -0.7469    2.2030    2.4624 H   0  0  0  0  0  0  0  0  0  0  0  0
   -1.2315    2.8417    0.8881 H   0  0  0  0  0  0  0  0  0  0  0  0
   -0.4460   -0.1567   -1.1443 H   0  0  0  0  0  0  0  0  0  0  0  0
   -0.7757    1.5512   -1.2083 H   0  0  0  0  0  0  0  0  0  0  0  0
    1.5102    0.6499   -1.9432 H   0  0  0  0  0  0  0  0  0  0  0  0
    1.4051    2.1859   -1.1189 H   0  0  0  0  0  0  0  0  0  0  0  0
    2.3396    1.4852    0.8335 H   0  0  0  0  0  0  0  0  0  0  0  0
    2.4415   -0.8183    1.6744 H   0  0  0  0  0  0  0  0  0  0  0  0
    0.7249    0.3192    2.5224 H   0  0  0  0  0  0  0  0  0  0  0  0
   -0.6891   -1.2812    3.1087 H   0  0  0  0  0  0  0  0  0  0  0  0
    0.0745   -2.3706    1.9676 H   0  0  0  0  0  0  0  0  0  0  0  0
   -1.5521   -1.7913    0.2296 H   0  0  0  0  0  0  0  0  0  0  0  0
   -2.5083   -1.8942    1.7109 H   0  0  0  0  0  0  0  0  0  0  0  0
   -2.2972    0.5008    2.1116 H   0  0  0  0  0  0  0  0  0  0  0  0
   -4.3143   -0.7124    1.3087 H   0  0  0  0  0  0  0  0  0  0  0  0
   -6.3841   -0.2183   -2.2798 H   0  0  0  0  0  0  0  0  0  0  0  0
   -4.9695   -1.2409   -1.9732 H   0  0  0  0  0  0  0  0  0  0  0  0
   -4.7711    0.4900   -2.2556 H   0  0  0  0  0  0  0  0  0  0  0  0
   -5.4676    2.1746   -0.4298 H   0  0  0  0  0  0  0  0  0  0  0  0
   -7.1064    1.5199   -0.4573 H   0  0  0  0  0  0  0  0  0  0  0  0
   -6.2029    1.5949    1.0656 H   0  0  0  0  0  0  0  0  0  0  0  0
   -6.2013   -2.0648    0.1362 H   0  0  0  0  0  0  0  0  0  0  0  0
   -6.7105   -0.9064    1.3671 H   0  0  0  0  0  0  0  0  0  0  0  0
   -7.5396   -0.9513   -0.1976 H   0  0  0  0  0  0  0  0  0  0  0  0
    1.8107   -2.7098    0.5899 H   0  0  0  0  0  0  0  0  0  0  0  0
    0.7165   -1.9354   -0.5308 H   0  0  0  0  0  0  0  0  0  0  0  0
    2.4010   -1.4108   -2.0529 H   0  0  0  0  0  0  0  0  0  0  0  0
    3.0175   -2.8897   -1.3614 H   0  0  0  0  0  0  0  0  0  0  0  0
    5.3080   -2.7671   -0.6711 H   0  0  0  0  0  0  0  0  0  0  0  0
    6.7710    0.5716    1.4350 H   0  0  0  0  0  0  0  0  0  0  0  0
    6.6422    1.0798   -0.2553 H   0  0  0  0  0  0  0  0  0  0  0  0
    4.6790    1.8881    0.9577 H   0  0  0  0  0  0  0  0  0  0  0  0
    4.4318    0.3210    1.7088 H   0  0  0  0  0  0  0  0  0  0  0  0
    3.9428    2.3015   -1.4524 H   0  0  0  0  0  0  0  0  0  0  0  0
    5.1695    1.1233   -1.9253 H   0  0  0  0  0  0  0  0  0  0  0  0
    3.5379    0.9325   -2.5060 H   0  0  0  0  0  0  0  0  0  0  0  0
  1  2  1  0
  2  3  1  0
  3  4  1  0
  4  5  1  0
  5  6  1  0
  6  7  1  0
  7  8  1  0
  8  9  1  0
  9 10  1  0
 10 11  1  0
 11 12  2  0
 11 13  1  0
 13 14  1  0
 14 15  1  0
 14 16  1  0
 14 17  1  0
  6 18  1  0
 18 19  1  0
 19 20  1  0
 20 21  2  0
 21 22  1  0
 22 23  2  0
 22 24  1  0
 24 25  1  0
 25 26  1  0
 26 27  1  0
  7  2  1  0
 10  2  1  0
 26  5  1  0
 26 20  1  0
  1 28  1  0
  1 29  1  0
  1 30  1  0
  3 31  1  0
  3 32  1  0
  4 33  1  0
  4 34  1  0
  5 35  1  0
  6 36  1  0
  7 37  1  0
  8 38  1  0
  8 39  1  0
  9 40  1  0
  9 41  1  0
 10 42  1  0
 13 43  1  0
 15 44  1  0
 15 45  1  0
 15 46  1  0
 16 47  1  0
 16 48  1  0
 16 49  1  0
 17 50  1  0
 17 51  1  0
 17 52  1  0
 18 53  1  0
 18 54  1  0
 19 55  1  0
 19 56  1  0
 21 57  1  0
 24 58  1  0
 24 59  1  0
 25 60  1  0
 25 61  1  0
 27 62  1  0
 27 63  1  0
 27 64  1  0
M  END
$$$$
