
     RDKit          3D

 64 67  0  0  0  0  0  0  0  0999 V2000
    0.2725    1.9381    1.3882 C   0  0  0  0  0  0  0  0  0  0  0  0
    0.5331    0.8218    0.3618 C   0  0  0  0  0  0  0  0  0  0  0  0
    0.0410   -0.5303    0.9187 C   0  0  0  0  0  0  0  0  0  0  0  0
   -1.4773   -0.7236    0.8493 C   0  0  0  0  0  0  0  0  0  0  0  0
   -2.0211   -0.5997   -0.5891 C   0  0  0  0  0  0  0  0  0  0  0  0
   -1.6168    0.7800   -1.1834 C   0  0  0  0  0  0  0  0  0  0  0  0
   -0.1145    1.1062   -1.0190 C   0  0  0  0  0  0  0  0  0  0  0  0
    0.7484    0.3061   -2.0191 C   0  0  0  0  0  0  0  0  0  0  0  0
    2.1060    0.0944   -1.3588 C   0  0  0  0  0  0  0  0  0  0  0  0
    2.0422    0.8417   -0.0253 C   0  0  0  0  0  0  0  0  0  0  0  0
    3.0506    0.2821    0.9798 C   0  0  0  0  0  0  0  0  0  0  0  0
    2.7362   -0.2812    2.0199 O   0  0  0  0  0  0  0  0  0  0  0  0
    4.3608    0.4938    0.5913 N   0  0  0  0  0  0  0  0  0  0  0  0
    5.5450    0.0092    1.3174 C   0  0  0  0  0  0  0  0  0  0  0  0
    6.7957    0.5385    0.5902 C   0  0  0  0  0  0  0  0  0  0  0  0
    5.5881   -1.5272    1.3095 C   0  0  0  0  0  0  0  0  0  0  0  0
    5.5747    0.5311    2.7636 C   0  0  0  0  0  0  0  0  0  0  0  0
   -2.5013    1.9080   -0.6239 C   0  0  0  0  0  0  0  0  0  0  0  0
   -3.9750    1.6564   -0.9079 C   0  0  0  0  0  0  0  0  0  0  0  0
   -4.4327    0.3153   -0.3908 C   0  0  0  0  0  0  0  0  0  0  0  0
   -5.5831    0.2277    0.3026 C   0  0  0  0  0  0  0  0  0  0  0  0
   -6.1659   -1.0807    0.6890 C   0  0  0  0  0  0  0  0  0  0  0  0
   -7.1941   -1.1112    1.3594 O   0  0  0  0  0  0  0  0  0  0  0  0
   -5.5055   -2.3306    0.1659 C   0  0  0  0  0  0  0  0  0  0  0  0
   -3.9977   -2.1227    0.1030 C   0  0  0  0  0  0  0  0  0  0  0  0
   -3.5715   -0.8959   -0.7568 C   0  0  0  0  0  0  0  0  0  0  0  0
   -3.8451   -1.2362   -2.2468 C   0  0  0  0  0  0  0  0  0  0  0  0
    0.4614    2.9277    0.9573 H   0  0  0  0  0  0  0  0  0  0  0  0
   -0.7501    1.9309    1.7696 H   0  0  0  0  0  0  0  0  0  0  0  0
    0.9296    1.8288    2.2584 H   0  0  0  0  0  0  0  0  0  0  0  0
    0.5128   -1.3618    0.3796 H   0  0  0  0  0  0  0  0  0  0  0  0
    0.3390   -0.6421    1.9678 H   0  0  0  0  0  0  0  0  0  0  0  0
   -1.6634   -1.7300    1.2400 H   0  0  0  0  0  0  0  0  0  0  0  0
   -1.9865   -0.0247    1.5218 H   0  0  0  0  0  0  0  0  0  0  0  0
   -1.4991   -1.3774   -1.1664 H   0  0  0  0  0  0  0  0  0  0  0  0
   -1.8049    0.7492   -2.2658 H   0  0  0  0  0  0  0  0  0  0  0  0
    0.0337    2.1682   -1.2663 H   0  0  0  0  0  0  0  0  0  0  0  0
    0.3083   -0.6614   -2.2776 H   0  0  0  0  0  0  0  0  0  0  0  0
    0.8527    0.8632   -2.9574 H   0  0  0  0  0  0  0  0  0  0  0  0
    2.2868   -0.9765   -1.2078 H   0  0  0  0  0  0  0  0  0  0  0  0
    2.9175    0.4663   -1.9928 H   0  0  0  0  0  0  0  0  0  0  0  0
    2.3347    1.8876   -0.2072 H   0  0  0  0  0  0  0  0  0  0  0  0
    4.5144    0.8826   -0.3295 H   0  0  0  0  0  0  0  0  0  0  0  0
    7.7162    0.2269    1.0945 H   0  0  0  0  0  0  0  0  0  0  0  0
    6.8381    0.1697   -0.4414 H   0  0  0  0  0  0  0  0  0  0  0  0
    6.7918    1.6340    0.5437 H   0  0  0  0  0  0  0  0  0  0  0  0
    4.7409   -1.9617    1.8507 H   0  0  0  0  0  0  0  0  0  0  0  0
    6.5051   -1.9003    1.7792 H   0  0  0  0  0  0  0  0  0  0  0  0
    5.5530   -1.9164    0.2855 H   0  0  0  0  0  0  0  0  0  0  0  0
    6.5164    0.2675    3.2595 H   0  0  0  0  0  0  0  0  0  0  0  0
    5.4723    1.6232    2.7931 H   0  0  0  0  0  0  0  0  0  0  0  0
    4.7660    0.1094    3.3695 H   0  0  0  0  0  0  0  0  0  0  0  0
   -2.2130    2.8642   -1.0763 H   0  0  0  0  0  0  0  0  0  0  0  0
   -2.3710    2.0205    0.4535 H   0  0  0  0  0  0  0  0  0  0  0  0
   -4.5635    2.4735   -0.4717 H   0  0  0  0  0  0  0  0  0  0  0  0
   -4.1498    1.6975   -1.9905 H   0  0  0  0  0  0  0  0  0  0  0  0
   -6.1855    1.0933    0.5570 H   0  0  0  0  0  0  0  0  0  0  0  0
   -5.7249   -3.1528    0.8563 H   0  0  0  0  0  0  0  0  0  0  0  0
   -5.9345   -2.5816   -0.8081 H   0  0  0  0  0  0  0  0  0  0  0  0
   -3.5097   -3.0364   -0.2600 H   0  0  0  0  0  0  0  0  0  0  0  0
   -3.6782   -1.9875    1.1425 H   0  0  0  0  0  0  0  0  0  0  0  0
   -3.5341   -0.4341   -2.9233 H   0  0  0  0  0  0  0  0  0  0  0  0
   -3.3057   -2.1417   -2.5475 H   0  0  0  0  0  0  0  0  0  0  0  0
   -4.9096   -1.4090   -2.4393 H   0  0  0  0  0  0  0  0  0  0  0  0
  1  2  1  0
  2  3  1  0
  3  4  1  0
  4  5  1  0
  5  6  1  0
  6  7  1  0
  7  8  1  0
  8  9  1  0
  9 10  1  0
 10 11  1  0
 11 12  2  0
 11 13  1  0
 13 14  1  0
 14 15  1  0
 14 16  1  0
 14 17  1  0
  6 18  1  0
 18 19  1  0
 19 20  1  0
 20 21  2  0
 21 22  1  0
 22 23  2  0
 22 24  1  0
 24 25  1  0
 25 26  1  0
 26 27  1  0
  7  2  1  0
 10  2  1  0
 26  5  1  0
 26 20  1  0
  1 28  1  0
  1 29  1  0
  1 30  1  0
  3 31  1  0
  3 32  1  0
  4 33  1  0
  4 34  1  0
  5 35  1  0
  6 36  1  0
  7 37  1  0
  8 38  1  0
  8 39  1  0
  9 40  1  0
  9 41  1  0
 10 42  1  0
 13 43  1  0
 15 44  1  0
 15 45  1  0
 15 46  1  0
 16 47  1  0
 16 48  1  0
 16 49  1  0
 17 50  1  0
 17 51  1  0
 17 52  1  0
 18 53  1  0
 18 54  1  0
 19 55  1  0
 19 56  1  0
 21 57  1  0
 24 58  1  0
 24 59  1  0
 25 60  1  0
 25 61  1  0
 27 62  1  0
 27 63  1  0
 27 64  1  0
M  END
$$$$
