
     RDKit          3D

 64 67  0  0  0  0  0  0  0  0999 V2000
    0.8304   -1.3358    0.8005 C   0  0  0  0  0  0  0  0  0  0  0  0
    0.8371   -0.3972   -0.4332 C   0  0  0  0  0  0  0  0  0  0  0  0
    0.5560    1.0496    0.0033 C   0  0  0  0  0  0  0  0  0  0  0  0
   -0.8702    1.2058    0.5561 C   0  0  0  0  0  0  0  0  0  0  0  0
   -1.9760    0.6827   -0.3968 C   0  0  0  0  0  0  0  0  0  0  0  0
   -1.6609   -0.7251   -0.9843 C   0  0  0  0  0  0  0  0  0  0  0  0
   -0.2176   -0.7628   -1.4990 C   0  0  0  0  0  0  0  0  0  0  0  0
    0.3015   -2.0674   -2.0893 C   0  0  0  0  0  0  0  0  0  0  0  0
    1.8273   -1.8827   -2.0995 C   0  0  0  0  0  0  0  0  0  0  0  0
    2.1282   -0.6084   -1.2691 C   0  0  0  0  0  0  0  0  0  0  0  0
    3.4207   -0.7071   -0.4606 C   0  0  0  0  0  0  0  0  0  0  0  0
    4.0451   -1.7521   -0.3230 O   0  0  0  0  0  0  0  0  0  0  0  0
    3.8025    0.4954    0.0987 N   0  0  0  0  0  0  0  0  0  0  0  0
    5.0137    0.6989    0.9082 C   0  0  0  0  0  0  0  0  0  0  0  0
    5.0000   -0.1942    2.1596 C   0  0  0  0  0  0  0  0  0  0  0  0
    5.0334    2.1684    1.3691 C   0  0  0  0  0  0  0  0  0  0  0  0
    6.2780    0.4306    0.0782 C   0  0  0  0  0  0  0  0  0  0  0  0
   -2.6509   -1.0896   -2.1167 C   0  0  0  0  0  0  0  0  0  0  0  0
   -4.0029   -0.3815   -2.0189 C   0  0  0  0  0  0  0  0  0  0  0  0
   -4.3766   -0.1631   -0.5803 C   0  0  0  0  0  0  0  0  0  0  0  0
   -5.4320   -0.7996   -0.0444 C   0  0  0  0  0  0  0  0  0  0  0  0
   -5.7786   -0.6568    1.3876 C   0  0  0  0  0  0  0  0  0  0  0  0
   -6.8024   -1.1867    1.8138 O   0  0  0  0  0  0  0  0  0  0  0  0
   -4.8820    0.1745    2.2695 C   0  0  0  0  0  0  0  0  0  0  0  0
   -3.4703    0.2967    1.7008 C   0  0  0  0  0  0  0  0  0  0  0  0
   -3.4350    0.7454    0.2158 C   0  0  0  0  0  0  0  0  0  0  0  0
   -3.9464    2.2014    0.1075 C   0  0  0  0  0  0  0  0  0  0  0  0
    1.5439   -0.9869    1.5559 H   0  0  0  0  0  0  0  0  0  0  0  0
    1.1099   -2.3631    0.5453 H   0  0  0  0  0  0  0  0  0  0  0  0
   -0.1464   -1.3871    1.2884 H   0  0  0  0  0  0  0  0  0  0  0  0
    0.6843    1.7335   -0.8453 H   0  0  0  0  0  0  0  0  0  0  0  0
    1.2676    1.3698    0.7727 H   0  0  0  0  0  0  0  0  0  0  0  0
   -1.0450    2.2666    0.7715 H   0  0  0  0  0  0  0  0  0  0  0  0
   -0.9134    0.6881    1.5188 H   0  0  0  0  0  0  0  0  0  0  0  0
   -1.9539    1.3697   -1.2583 H   0  0  0  0  0  0  0  0  0  0  0  0
   -1.7829   -1.4722   -0.1904 H   0  0  0  0  0  0  0  0  0  0  0  0
   -0.1553   -0.0140   -2.3071 H   0  0  0  0  0  0  0  0  0  0  0  0
    0.0228   -2.9270   -1.4697 H   0  0  0  0  0  0  0  0  0  0  0  0
   -0.0832   -2.2489   -3.0979 H   0  0  0  0  0  0  0  0  0  0  0  0
    2.3109   -2.7833   -1.7071 H   0  0  0  0  0  0  0  0  0  0  0  0
    2.1907   -1.7483   -3.1250 H   0  0  0  0  0  0  0  0  0  0  0  0
    2.2538    0.2241   -1.9769 H   0  0  0  0  0  0  0  0  0  0  0  0
    3.3313    1.3254   -0.2363 H   0  0  0  0  0  0  0  0  0  0  0  0
    5.0602   -1.2577    1.9079 H   0  0  0  0  0  0  0  0  0  0  0  0
    4.0799   -0.0467    2.7371 H   0  0  0  0  0  0  0  0  0  0  0  0
    5.8489    0.0314    2.8150 H   0  0  0  0  0  0  0  0  0  0  0  0
    5.9131    2.3837    1.9858 H   0  0  0  0  0  0  0  0  0  0  0  0
    5.0493    2.8512    0.5114 H   0  0  0  0  0  0  0  0  0  0  0  0
    4.1407    2.4088    1.9586 H   0  0  0  0  0  0  0  0  0  0  0  0
    7.1836    0.6603    0.6509 H   0  0  0  0  0  0  0  0  0  0  0  0
    6.2891    1.0440   -0.8300 H   0  0  0  0  0  0  0  0  0  0  0  0
    6.3466   -0.6160   -0.2352 H   0  0  0  0  0  0  0  0  0  0  0  0
   -2.2244   -0.8605   -3.1014 H   0  0  0  0  0  0  0  0  0  0  0  0
   -2.8053   -2.1767   -2.1031 H   0  0  0  0  0  0  0  0  0  0  0  0
   -3.9550    0.5891   -2.5281 H   0  0  0  0  0  0  0  0  0  0  0  0
   -4.7581   -0.9663   -2.5577 H   0  0  0  0  0  0  0  0  0  0  0  0
   -6.0787   -1.4546   -0.6181 H   0  0  0  0  0  0  0  0  0  0  0  0
   -5.3435    1.1588    2.3989 H   0  0  0  0  0  0  0  0  0  0  0  0
   -4.8269   -0.3049    3.2533 H   0  0  0  0  0  0  0  0  0  0  0  0
   -2.9198    1.0024    2.3340 H   0  0  0  0  0  0  0  0  0  0  0  0
   -2.9705   -0.6764    1.8004 H   0  0  0  0  0  0  0  0  0  0  0  0
   -3.3577    2.8764    0.7381 H   0  0  0  0  0  0  0  0  0  0  0  0
   -3.8843    2.5724   -0.9224 H   0  0  0  0  0  0  0  0  0  0  0  0
   -4.9944    2.2958    0.4126 H   0  0  0  0  0  0  0  0  0  0  0  0
  1  2  1  0
  2  3  1  0
  3  4  1  0
  4  5  1  0
  5  6  1  0
  6  7  1  0
  7  8  1  0
  8  9  1  0
  9 10  1  0
 10 11  1  0
 11 12  2  0
 11 13  1  0
 13 14  1  0
 14 15  1  0
 14 16  1  0
 14 17  1  0
  6 18  1  0
 18 19  1  0
 19 20  1  0
 20 21  2  0
 21 22  1  0
 22 23  2  0
 22 24  1  0
 24 25  1  0
 25 26  1  0
 26 27  1  0
  7  2  1  0
 10  2  1  0
 26  5  1  0
 26 20  1  0
  1 28  1  0
  1 29  1  0
  1 30  1  0
  3 31  1  0
  3 32  1  0
  4 33  1  0
  4 34  1  0
  5 35  1  0
  6 36  1  0
  7 37  1  0
  8 38  1  0
  8 39  1  0
  9 40  1  0
  9 41  1  0
 10 42  1  0
 13 43  1  0
 15 44  1  0
 15 45  1  0
 15 46  1  0
 16 47  1  0
 16 48  1  0
 16 49  1  0
 17 50  1  0
 17 51  1  0
 17 52  1  0
 18 53  1  0
 18 54  1  0
 19 55  1  0
 19 56  1  0
 21 57  1  0
 24 58  1  0
 24 59  1  0
 25 60  1  0
 25 61  1  0
 27 62  1  0
 27 63  1  0
 27 64  1  0
M  END
$$$$
