
     RDKit          3D

 64 67  0  0  0  0  0  0  0  0999 V2000
   -0.5791    0.2926   -2.2381 C   0  0  0  0  0  0  0  0  0  0  0  0
   -0.6383   -0.1684   -0.7710 C   0  0  0  0  0  0  0  0  0  0  0  0
   -0.1060    0.9437    0.1563 C   0  0  0  0  0  0  0  0  0  0  0  0
    1.4215    1.0726    0.1679 C   0  0  0  0  0  0  0  0  0  0  0  0
    2.1237   -0.2378    0.5802 C   0  0  0  0  0  0  0  0  0  0  0  0
    1.6696   -1.3937   -0.3560 C   0  0  0  0  0  0  0  0  0  0  0  0
    0.1354   -1.4887   -0.5207 C   0  0  0  0  0  0  0  0  0  0  0  0
   -0.5284   -2.0783    0.7402 C   0  0  0  0  0  0  0  0  0  0  0  0
   -1.9545   -1.5415    0.7729 C   0  0  0  0  0  0  0  0  0  0  0  0
   -2.0941   -0.6216   -0.4443 C   0  0  0  0  0  0  0  0  0  0  0  0
   -3.1447    0.4709   -0.2288 C   0  0  0  0  0  0  0  0  0  0  0  0
   -2.9223    1.6652   -0.3795 O   0  0  0  0  0  0  0  0  0  0  0  0
   -4.3874   -0.0356    0.1039 N   0  0  0  0  0  0  0  0  0  0  0  0
   -5.5991    0.7744    0.3054 C   0  0  0  0  0  0  0  0  0  0  0  0
   -5.9963    1.4953   -0.9919 C   0  0  0  0  0  0  0  0  0  0  0  0
   -6.7433   -0.1757    0.7059 C   0  0  0  0  0  0  0  0  0  0  0  0
   -5.4038    1.7930    1.4402 C   0  0  0  0  0  0  0  0  0  0  0  0
    2.3777   -1.3154   -1.7195 C   0  0  0  0  0  0  0  0  0  0  0  0
    3.8906   -1.3665   -1.5689 C   0  0  0  0  0  0  0  0  0  0  0  0
    4.4060   -0.2943   -0.6413 C   0  0  0  0  0  0  0  0  0  0  0  0
    5.4788    0.4349   -0.9999 C   0  0  0  0  0  0  0  0  0  0  0  0
    6.1373    1.3750   -0.0606 C   0  0  0  0  0  0  0  0  0  0  0  0
    7.1109    2.0224   -0.4383 O   0  0  0  0  0  0  0  0  0  0  0  0
    5.6339    1.4308    1.3594 C   0  0  0  0  0  0  0  0  0  0  0  0
    4.1309    1.1847    1.3857 C   0  0  0  0  0  0  0  0  0  0  0  0
    3.7034   -0.1524    0.7104 C   0  0  0  0  0  0  0  0  0  0  0  0
    4.1823   -1.3219    1.6130 C   0  0  0  0  0  0  0  0  0  0  0  0
   -0.7795   -0.5369   -2.9252 H   0  0  0  0  0  0  0  0  0  0  0  0
    0.3873    0.7222   -2.5072 H   0  0  0  0  0  0  0  0  0  0  0  0
   -1.3261    1.0687   -2.4374 H   0  0  0  0  0  0  0  0  0  0  0  0
   -0.4413    0.7743    1.1873 H   0  0  0  0  0  0  0  0  0  0  0  0
   -0.5164    1.9164   -0.1381 H   0  0  0  0  0  0  0  0  0  0  0  0
    1.7867    1.4221   -0.8034 H   0  0  0  0  0  0  0  0  0  0  0  0
    1.6443    1.8636    0.8917 H   0  0  0  0  0  0  0  0  0  0  0  0
    1.7502   -0.4617    1.5894 H   0  0  0  0  0  0  0  0  0  0  0  0
    1.9861   -2.3419    0.0995 H   0  0  0  0  0  0  0  0  0  0  0  0
   -0.0816   -2.1876   -1.3421 H   0  0  0  0  0  0  0  0  0  0  0  0
   -0.0121   -1.7897    1.6613 H   0  0  0  0  0  0  0  0  0  0  0  0
   -0.5186   -3.1735    0.7039 H   0  0  0  0  0  0  0  0  0  0  0  0
   -2.6795   -2.3622    0.7306 H   0  0  0  0  0  0  0  0  0  0  0  0
   -2.1352   -1.0047    1.7119 H   0  0  0  0  0  0  0  0  0  0  0  0
   -2.4608   -1.2306   -1.2850 H   0  0  0  0  0  0  0  0  0  0  0  0
   -4.5112   -1.0371    0.0325 H   0  0  0  0  0  0  0  0  0  0  0  0
   -6.1151    0.7831   -1.8166 H   0  0  0  0  0  0  0  0  0  0  0  0
   -6.9439    2.0325   -0.8717 H   0  0  0  0  0  0  0  0  0  0  0  0
   -5.2430    2.2274   -1.3003 H   0  0  0  0  0  0  0  0  0  0  0  0
   -6.4998   -0.7201    1.6259 H   0  0  0  0  0  0  0  0  0  0  0  0
   -6.9278   -0.9232   -0.0746 H   0  0  0  0  0  0  0  0  0  0  0  0
   -7.6780    0.3706    0.8748 H   0  0  0  0  0  0  0  0  0  0  0  0
   -5.0742    1.2971    2.3605 H   0  0  0  0  0  0  0  0  0  0  0  0
   -6.3373    2.3237    1.6594 H   0  0  0  0  0  0  0  0  0  0  0  0
   -4.6536    2.5497    1.1905 H   0  0  0  0  0  0  0  0  0  0  0  0
    2.0587   -2.1531   -2.3516 H   0  0  0  0  0  0  0  0  0  0  0  0
    2.1163   -0.4012   -2.2560 H   0  0  0  0  0  0  0  0  0  0  0  0
    4.3464   -1.2827   -2.5632 H   0  0  0  0  0  0  0  0  0  0  0  0
    4.1861   -2.3477   -1.1772 H   0  0  0  0  0  0  0  0  0  0  0  0
    5.9708    0.3246   -1.9602 H   0  0  0  0  0  0  0  0  0  0  0  0
    6.1845    0.7033    1.9625 H   0  0  0  0  0  0  0  0  0  0  0  0
    5.8400    2.4298    1.7598 H   0  0  0  0  0  0  0  0  0  0  0  0
    3.7667    1.2245    2.4194 H   0  0  0  0  0  0  0  0  0  0  0  0
    3.6849    2.0356    0.8581 H   0  0  0  0  0  0  0  0  0  0  0  0
    3.8720   -2.2994    1.2309 H   0  0  0  0  0  0  0  0  0  0  0  0
    3.7753   -1.2246    2.6260 H   0  0  0  0  0  0  0  0  0  0  0  0
    5.2741   -1.3549    1.6989 H   0  0  0  0  0  0  0  0  0  0  0  0
  1  2  1  0
  2  3  1  0
  3  4  1  0
  4  5  1  0
  5  6  1  0
  6  7  1  0
  7  8  1  0
  8  9  1  0
  9 10  1  0
 10 11  1  0
 11 12  2  0
 11 13  1  0
 13 14  1  0
 14 15  1  0
 14 16  1  0
 14 17  1  0
  6 18  1  0
 18 19  1  0
 19 20  1  0
 20 21  2  0
 21 22  1  0
 22 23  2  0
 22 24  1  0
 24 25  1  0
 25 26  1  0
 26 27  1  0
  7  2  1  0
 10  2  1  0
 26  5  1  0
 26 20  1  0
  1 28  1  0
  1 29  1  0
  1 30  1  0
  3 31  1  0
  3 32  1  0
  4 33  1  0
  4 34  1  0
  5 35  1  0
  6 36  1  0
  7 37  1  0
  8 38  1  0
  8 39  1  0
  9 40  1  0
  9 41  1  0
 10 42  1  0
 13 43  1  0
 15 44  1  0
 15 45  1  0
 15 46  1  0
 16 47  1  0
 16 48  1  0
 16 49  1  0
 17 50  1  0
 17 51  1  0
 17 52  1  0
 18 53  1  0
 18 54  1  0
 19 55  1  0
 19 56  1  0
 21 57  1  0
 24 58  1  0
 24 59  1  0
 25 60  1  0
 25 61  1  0
 27 62  1  0
 27 63  1  0
 27 64  1  0
M  END
$$$$
