
     RDKit          3D

 64 67  0  0  0  0  0  0  0  0999 V2000
   -1.1028   -0.4821   -0.7682 C   0  0  0  0  0  0  0  0  0  0  0  0
   -0.6424    0.2381    0.5171 C   0  0  0  0  0  0  0  0  0  0  0  0
   -0.0176   -0.7696    1.4923 C   0  0  0  0  0  0  0  0  0  0  0  0
    1.2878   -1.3526    0.9334 C   0  0  0  0  0  0  0  0  0  0  0  0
    2.3421   -0.2938    0.5063 C   0  0  0  0  0  0  0  0  0  0  0  0
    1.7559    0.9392   -0.2747 C   0  0  0  0  0  0  0  0  0  0  0  0
    0.3939    1.3547    0.2892 C   0  0  0  0  0  0  0  0  0  0  0  0
   -0.4066    2.4618   -0.3874 C   0  0  0  0  0  0  0  0  0  0  0  0
   -1.7681    2.4133    0.3315 C   0  0  0  0  0  0  0  0  0  0  0  0
   -1.7863    1.0889    1.1341 C   0  0  0  0  0  0  0  0  0  0  0  0
   -3.1402    0.3975    1.2854 C   0  0  0  0  0  0  0  0  0  0  0  0
   -3.4389   -0.1494    2.3446 O   0  0  0  0  0  0  0  0  0  0  0  0
   -3.9501    0.3860    0.1744 N   0  0  0  0  0  0  0  0  0  0  0  0
   -5.2570   -0.2863    0.0916 C   0  0  0  0  0  0  0  0  0  0  0  0
   -5.1029   -1.8048    0.2681 C   0  0  0  0  0  0  0  0  0  0  0  0
   -6.2375    0.2730    1.1352 C   0  0  0  0  0  0  0  0  0  0  0  0
   -5.8407   -0.0156   -1.3079 C   0  0  0  0  0  0  0  0  0  0  0  0
    1.8867    0.8014   -1.7975 C   0  0  0  0  0  0  0  0  0  0  0  0
    3.3554    0.6299   -2.2317 C   0  0  0  0  0  0  0  0  0  0  0  0
    4.2296    0.1495   -1.0930 C   0  0  0  0  0  0  0  0  0  0  0  0
    5.4116    0.7402   -0.8472 C   0  0  0  0  0  0  0  0  0  0  0  0
    6.1725    0.4526    0.3907 C   0  0  0  0  0  0  0  0  0  0  0  0
    7.2921    0.9352    0.5393 O   0  0  0  0  0  0  0  0  0  0  0  0
    5.4830   -0.3422    1.4696 C   0  0  0  0  0  0  0  0  0  0  0  0
    4.6330   -1.4409    0.8500 C   0  0  0  0  0  0  0  0  0  0  0  0
    3.6080   -0.9258   -0.2026 C   0  0  0  0  0  0  0  0  0  0  0  0
    3.2656   -2.1578   -1.0810 C   0  0  0  0  0  0  0  0  0  0  0  0
   -1.8555   -1.2439   -0.5371 H   0  0  0  0  0  0  0  0  0  0  0  0
   -1.5374    0.2031   -1.5018 H   0  0  0  0  0  0  0  0  0  0  0  0
   -0.2936   -1.0110   -1.2724 H   0  0  0  0  0  0  0  0  0  0  0  0
   -0.7213   -1.5838    1.7039 H   0  0  0  0  0  0  0  0  0  0  0  0
    0.1966   -0.2890    2.4556 H   0  0  0  0  0  0  0  0  0  0  0  0
    1.0296   -2.0047    0.0951 H   0  0  0  0  0  0  0  0  0  0  0  0
    1.7268   -2.0076    1.6958 H   0  0  0  0  0  0  0  0  0  0  0  0
    2.6868    0.1418    1.4565 H   0  0  0  0  0  0  0  0  0  0  0  0
    2.4123    1.7904   -0.0265 H   0  0  0  0  0  0  0  0  0  0  0  0
    0.6442    1.7575    1.2877 H   0  0  0  0  0  0  0  0  0  0  0  0
   -0.5461    2.2765   -1.4570 H   0  0  0  0  0  0  0  0  0  0  0  0
    0.0708    3.4407   -0.2776 H   0  0  0  0  0  0  0  0  0  0  0  0
   -2.5811    2.5169   -0.3920 H   0  0  0  0  0  0  0  0  0  0  0  0
   -1.8588    3.2596    1.0231 H   0  0  0  0  0  0  0  0  0  0  0  0
   -1.5012    1.3609    2.1632 H   0  0  0  0  0  0  0  0  0  0  0  0
   -3.5580    0.7163   -0.6956 H   0  0  0  0  0  0  0  0  0  0  0  0
   -4.3903   -2.2144   -0.4571 H   0  0  0  0  0  0  0  0  0  0  0  0
   -6.0603   -2.3186    0.1261 H   0  0  0  0  0  0  0  0  0  0  0  0
   -4.7373   -2.0660    1.2664 H   0  0  0  0  0  0  0  0  0  0  0  0
   -7.2387   -0.1534    1.0047 H   0  0  0  0  0  0  0  0  0  0  0  0
   -6.3218    1.3625    1.0505 H   0  0  0  0  0  0  0  0  0  0  0  0
   -5.9225    0.0484    2.1590 H   0  0  0  0  0  0  0  0  0  0  0  0
   -5.1790   -0.4002   -2.0930 H   0  0  0  0  0  0  0  0  0  0  0  0
   -6.8205   -0.4900   -1.4327 H   0  0  0  0  0  0  0  0  0  0  0  0
   -5.9618    1.0598   -1.4834 H   0  0  0  0  0  0  0  0  0  0  0  0
    1.3089   -0.0474   -2.1683 H   0  0  0  0  0  0  0  0  0  0  0  0
    1.4832    1.6852   -2.3041 H   0  0  0  0  0  0  0  0  0  0  0  0
    3.4127   -0.0687   -3.0746 H   0  0  0  0  0  0  0  0  0  0  0  0
    3.7206    1.5947   -2.6068 H   0  0  0  0  0  0  0  0  0  0  0  0
    5.8332    1.5083   -1.4859 H   0  0  0  0  0  0  0  0  0  0  0  0
    4.8870    0.3415    2.0819 H   0  0  0  0  0  0  0  0  0  0  0  0
    6.2471   -0.7957    2.1105 H   0  0  0  0  0  0  0  0  0  0  0  0
    5.3189   -2.1552    0.3716 H   0  0  0  0  0  0  0  0  0  0  0  0
    4.1218   -1.9990    1.6434 H   0  0  0  0  0  0  0  0  0  0  0  0
    3.0001   -3.0260   -0.4665 H   0  0  0  0  0  0  0  0  0  0  0  0
    2.4330   -1.9737   -1.7659 H   0  0  0  0  0  0  0  0  0  0  0  0
    4.1258   -2.4560   -1.6936 H   0  0  0  0  0  0  0  0  0  0  0  0
  1  2  1  0
  2  3  1  0
  3  4  1  0
  4  5  1  0
  5  6  1  0
  6  7  1  0
  7  8  1  0
  8  9  1  0
  9 10  1  0
 10 11  1  0
 11 12  2  0
 11 13  1  0
 13 14  1  0
 14 15  1  0
 14 16  1  0
 14 17  1  0
  6 18  1  0
 18 19  1  0
 19 20  1  0
 20 21  2  0
 21 22  1  0
 22 23  2  0
 22 24  1  0
 24 25  1  0
 25 26  1  0
 26 27  1  0
  7  2  1  0
 10  2  1  0
 26  5  1  0
 26 20  1  0
  1 28  1  0
  1 29  1  0
  1 30  1  0
  3 31  1  0
  3 32  1  0
  4 33  1  0
  4 34  1  0
  5 35  1  0
  6 36  1  0
  7 37  1  0
  8 38  1  0
  8 39  1  0
  9 40  1  0
  9 41  1  0
 10 42  1  0
 13 43  1  0
 15 44  1  0
 15 45  1  0
 15 46  1  0
 16 47  1  0
 16 48  1  0
 16 49  1  0
 17 50  1  0
 17 51  1  0
 17 52  1  0
 18 53  1  0
 18 54  1  0
 19 55  1  0
 19 56  1  0
 21 57  1  0
 24 58  1  0
 24 59  1  0
 25 60  1  0
 25 61  1  0
 27 62  1  0
 27 63  1  0
 27 64  1  0
M  END
$$$$
