
     RDKit          3D

 64 67  0  0  0  0  0  0  0  0999 V2000
    1.7701    0.6381   -1.8292 C   0  0  0  0  0  0  0  0  0  0  0  0
    0.7870    0.0429   -0.7959 C   0  0  0  0  0  0  0  0  0  0  0  0
   -0.0580    1.1980   -0.2409 C   0  0  0  0  0  0  0  0  0  0  0  0
   -1.2675    0.7758    0.5912 C   0  0  0  0  0  0  0  0  0  0  0  0
   -2.0453   -0.4586    0.0674 C   0  0  0  0  0  0  0  0  0  0  0  0
   -1.6112   -0.8694   -1.3575 C   0  0  0  0  0  0  0  0  0  0  0  0
   -0.0802   -1.0447   -1.5028 C   0  0  0  0  0  0  0  0  0  0  0  0
    0.3912   -2.4006   -0.9205 C   0  0  0  0  0  0  0  0  0  0  0  0
    1.7303   -2.1246   -0.2583 C   0  0  0  0  0  0  0  0  0  0  0  0
    1.5120   -0.7376    0.3351 C   0  0  0  0  0  0  0  0  0  0  0  0
    2.7391   -0.0690    0.9521 C   0  0  0  0  0  0  0  0  0  0  0  0
    2.6243    0.6109    1.9693 O   0  0  0  0  0  0  0  0  0  0  0  0
    3.9298   -0.2382    0.2858 N   0  0  0  0  0  0  0  0  0  0  0  0
    5.2076    0.3796    0.6764 C   0  0  0  0  0  0  0  0  0  0  0  0
    6.2877   -0.1019   -0.3107 C   0  0  0  0  0  0  0  0  0  0  0  0
    5.1221    1.9115    0.5934 C   0  0  0  0  0  0  0  0  0  0  0  0
    5.6256   -0.0533    2.0910 C   0  0  0  0  0  0  0  0  0  0  0  0
   -2.2277    0.0275   -2.4556 C   0  0  0  0  0  0  0  0  0  0  0  0
   -3.2023    1.1165   -1.9896 C   0  0  0  0  0  0  0  0  0  0  0  0
   -4.0671    0.7950   -0.7929 C   0  0  0  0  0  0  0  0  0  0  0  0
   -5.1608    1.5385   -0.5460 C   0  0  0  0  0  0  0  0  0  0  0  0
   -5.9910    1.3411    0.6675 C   0  0  0  0  0  0  0  0  0  0  0  0
   -7.0440    1.9665    0.7780 O   0  0  0  0  0  0  0  0  0  0  0  0
   -5.5360    0.3562    1.7197 C   0  0  0  0  0  0  0  0  0  0  0  0
   -4.0490    0.0277    1.6018 C   0  0  0  0  0  0  0  0  0  0  0  0
   -3.6075   -0.3064    0.1504 C   0  0  0  0  0  0  0  0  0  0  0  0
   -4.2988   -1.6308   -0.2742 C   0  0  0  0  0  0  0  0  0  0  0  0
    2.3980    1.4177   -1.3854 H   0  0  0  0  0  0  0  0  0  0  0  0
    1.2259    1.1010   -2.6612 H   0  0  0  0  0  0  0  0  0  0  0  0
    2.4245   -0.1257   -2.2613 H   0  0  0  0  0  0  0  0  0  0  0  0
   -0.4161    1.8137   -1.0752 H   0  0  0  0  0  0  0  0  0  0  0  0
    0.5666    1.8700    0.3616 H   0  0  0  0  0  0  0  0  0  0  0  0
   -0.9402    0.5631    1.6173 H   0  0  0  0  0  0  0  0  0  0  0  0
   -1.9154    1.6552    0.6789 H   0  0  0  0  0  0  0  0  0  0  0  0
   -1.7767   -1.2883    0.7373 H   0  0  0  0  0  0  0  0  0  0  0  0
   -2.0195   -1.8712   -1.5500 H   0  0  0  0  0  0  0  0  0  0  0  0
    0.1561   -1.0740   -2.5756 H   0  0  0  0  0  0  0  0  0  0  0  0
   -0.3118   -2.7861   -0.1733 H   0  0  0  0  0  0  0  0  0  0  0  0
    0.4795   -3.1628   -1.7019 H   0  0  0  0  0  0  0  0  0  0  0  0
    2.5274   -2.1511   -1.0076 H   0  0  0  0  0  0  0  0  0  0  0  0
    1.9706   -2.8692    0.5072 H   0  0  0  0  0  0  0  0  0  0  0  0
    0.8214   -0.8798    1.1794 H   0  0  0  0  0  0  0  0  0  0  0  0
    3.9022   -0.6750   -0.6239 H   0  0  0  0  0  0  0  0  0  0  0  0
    6.3798   -1.1942   -0.2923 H   0  0  0  0  0  0  0  0  0  0  0  0
    6.0392    0.1858   -1.3392 H   0  0  0  0  0  0  0  0  0  0  0  0
    7.2687    0.3234   -0.0711 H   0  0  0  0  0  0  0  0  0  0  0  0
    4.8053    2.2338   -0.4052 H   0  0  0  0  0  0  0  0  0  0  0  0
    4.4035    2.3209    1.3106 H   0  0  0  0  0  0  0  0  0  0  0  0
    6.0932    2.3737    0.8039 H   0  0  0  0  0  0  0  0  0  0  0  0
    6.6245    0.3226    2.3400 H   0  0  0  0  0  0  0  0  0  0  0  0
    4.9399    0.3223    2.8568 H   0  0  0  0  0  0  0  0  0  0  0  0
    5.6458   -1.1458    2.1775 H   0  0  0  0  0  0  0  0  0  0  0  0
   -2.7635   -0.6266   -3.1575 H   0  0  0  0  0  0  0  0  0  0  0  0
   -1.4435    0.5043   -3.0565 H   0  0  0  0  0  0  0  0  0  0  0  0
   -3.8320    1.4003   -2.8430 H   0  0  0  0  0  0  0  0  0  0  0  0
   -2.6176    2.0110   -1.7408 H   0  0  0  0  0  0  0  0  0  0  0  0
   -5.4859    2.3366   -1.2049 H   0  0  0  0  0  0  0  0  0  0  0  0
   -6.1506   -0.5454    1.6369 H   0  0  0  0  0  0  0  0  0  0  0  0
   -5.7235    0.7976    2.7051 H   0  0  0  0  0  0  0  0  0  0  0  0
   -3.4951    0.8934    1.9838 H   0  0  0  0  0  0  0  0  0  0  0  0
   -3.8081   -0.8065    2.2726 H   0  0  0  0  0  0  0  0  0  0  0  0
   -4.1430   -1.8692   -1.3312 H   0  0  0  0  0  0  0  0  0  0  0  0
   -3.9249   -2.4717    0.3208 H   0  0  0  0  0  0  0  0  0  0  0  0
   -5.3853   -1.5945   -0.1440 H   0  0  0  0  0  0  0  0  0  0  0  0
  1  2  1  0
  2  3  1  0
  3  4  1  0
  4  5  1  0
  5  6  1  0
  6  7  1  0
  7  8  1  0
  8  9  1  0
  9 10  1  0
 10 11  1  0
 11 12  2  0
 11 13  1  0
 13 14  1  0
 14 15  1  0
 14 16  1  0
 14 17  1  0
  6 18  1  0
 18 19  1  0
 19 20  1  0
 20 21  2  0
 21 22  1  0
 22 23  2  0
 22 24  1  0
 24 25  1  0
 25 26  1  0
 26 27  1  0
  7  2  1  0
 10  2  1  0
 26  5  1  0
 26 20  1  0
  1 28  1  0
  1 29  1  0
  1 30  1  0
  3 31  1  0
  3 32  1  0
  4 33  1  0
  4 34  1  0
  5 35  1  0
  6 36  1  0
  7 37  1  0
  8 38  1  0
  8 39  1  0
  9 40  1  0
  9 41  1  0
 10 42  1  0
 13 43  1  0
 15 44  1  0
 15 45  1  0
 15 46  1  0
 16 47  1  0
 16 48  1  0
 16 49  1  0
 17 50  1  0
 17 51  1  0
 17 52  1  0
 18 53  1  0
 18 54  1  0
 19 55  1  0
 19 56  1  0
 21 57  1  0
 24 58  1  0
 24 59  1  0
 25 60  1  0
 25 61  1  0
 27 62  1  0
 27 63  1  0
 27 64  1  0
M  END
$$$$
