
     RDKit          3D

 30 30  0  0  0  0  0  0  0  0999 V2000
   -3.4145   -1.7310   -0.2644 C   0  0  0  0  0  0  0  0  0  0  0  0
   -3.2933   -0.2211   -0.4486 C   0  0  0  0  0  0  0  0  0  0  0  0
   -3.7135    0.5338    0.8092 C   0  0  0  0  0  0  0  0  0  0  0  0
   -1.8863    0.1770   -0.8973 C   0  0  0  0  0  0  0  0  0  0  0  0
   -1.7175    0.7121   -1.9886 O   0  0  0  0  0  0  0  0  0  0  0  0
   -0.8930   -0.1229    0.0185 N   0  0  0  0  0  0  0  0  0  0  0  0
    0.4917    0.1210   -0.1014 C   0  0  0  0  0  0  0  0  0  0  0  0
    1.2996   -0.2898    0.9705 C   0  0  0  0  0  0  0  0  0  0  0  0
    2.6921   -0.0925    0.9604 C   0  0  0  0  0  0  0  0  0  0  0  0
    3.2809    0.5152   -0.1563 C   0  0  0  0  0  0  0  0  0  0  0  0
    2.4779    0.9277   -1.2290 C   0  0  0  0  0  0  0  0  0  0  0  0
    1.0885    0.7347   -1.2046 C   0  0  0  0  0  0  0  0  0  0  0  0
    3.1059    1.5685   -2.3937 N   0  0  0  0  0  4  0  0  0  0  0  0
    2.3679    2.0110   -3.2833 O   0  0  0  0  0  1  0  0  0  0  0  0
    4.3438    1.6290   -2.4130 O   0  0  0  0  0  0  0  0  0  0  0  0
    3.5426   -0.5640    2.1157 C   0  0  0  0  0  0  0  0  0  0  0  0
    2.8590   -0.6097    3.2924 F   0  0  0  0  0  0  0  0  0  0  0  0
    4.0301   -1.8173    1.9150 F   0  0  0  0  0  0  0  0  0  0  0  0
    4.6216    0.2331    2.3404 F   0  0  0  0  0  0  0  0  0  0  0  0
   -4.4575   -2.0150   -0.0887 H   0  0  0  0  0  0  0  0  0  0  0  0
   -3.0646   -2.2604   -1.1572 H   0  0  0  0  0  0  0  0  0  0  0  0
   -2.8237   -2.0895    0.5850 H   0  0  0  0  0  0  0  0  0  0  0  0
   -3.9730    0.0735   -1.2592 H   0  0  0  0  0  0  0  0  0  0  0  0
   -3.1300    0.2296    1.6844 H   0  0  0  0  0  0  0  0  0  0  0  0
   -3.5757    1.6126    0.6788 H   0  0  0  0  0  0  0  0  0  0  0  0
   -4.7699    0.3514    1.0328 H   0  0  0  0  0  0  0  0  0  0  0  0
   -1.1924   -0.5719    0.8749 H   0  0  0  0  0  0  0  0  0  0  0  0
    0.8488   -0.7738    1.8373 H   0  0  0  0  0  0  0  0  0  0  0  0
    4.3610    0.6637   -0.1786 H   0  0  0  0  0  0  0  0  0  0  0  0
    0.4934    1.0652   -2.0513 H   0  0  0  0  0  0  0  0  0  0  0  0
  1  2  1  0
  2  3  1  0
  2  4  1  0
  4  5  2  0
  4  6  1  0
  6  7  1  0
  7  8  2  0
  8  9  1  0
  9 10  2  0
 10 11  1  0
 11 12  2  0
 11 13  1  0
 13 14  1  0
 13 15  2  0
  9 16  1  0
 16 17  1  0
 16 18  1  0
 16 19  1  0
 12  7  1  0
  1 20  1  0
  1 21  1  0
  1 22  1  0
  2 23  1  0
  3 24  1  0
  3 25  1  0
  3 26  1  0
  6 27  1  0
  8 28  1  0
 10 29  1  0
 12 30  1  0
M  CHG  2  13   1  14  -1
M  END
$$$$
