
     RDKit          3D

 51 54  0  0  0  0  0  0  0  0999 V2000
   -6.1603   -3.9718   -0.0535 O   0  0  0  0  0  0  0  0  0  0  0  0
   -4.8569   -3.5693   -0.0620 C   0  0  0  0  0  0  0  0  0  0  0  0
   -4.5134   -2.2251    0.0280 C   0  0  0  0  0  0  0  0  0  0  0  0
   -3.1659   -1.8585    0.0273 C   0  0  0  0  0  0  0  0  0  0  0  0
   -2.1609   -2.8247   -0.0988 C   0  0  0  0  0  0  0  0  0  0  0  0
   -0.7116   -2.4282   -0.1335 C   0  0  0  0  0  0  0  0  0  0  0  0
   -0.5398   -0.9280   -0.3784 C   0  0  0  0  0  0  0  0  0  0  0  0
    0.7877   -0.5163    0.0127 O   0  0  0  0  0  0  0  0  0  0  0  0
    1.7574   -0.7030   -0.9154 C   0  0  0  0  0  0  0  0  0  0  0  0
    1.6227   -1.2685   -1.9874 O   0  0  0  0  0  0  0  0  0  0  0  0
    3.0421   -0.1254   -0.4423 C   0  0  0  0  0  0  0  0  0  0  0  0
    3.1035    0.7566    0.6505 C   0  0  0  0  0  0  0  0  0  0  0  0
    4.3317    1.2775    1.0411 C   0  0  0  0  0  0  0  0  0  0  0  0
    4.3805    2.0927    2.1343 O   0  0  0  0  0  0  0  0  0  0  0  0
    5.4880    0.9581    0.3391 C   0  0  0  0  0  0  0  0  0  0  0  0
    6.6877    1.5328    0.6564 O   0  0  0  0  0  0  0  0  0  0  0  0
    5.4298    0.0730   -0.7314 C   0  0  0  0  0  0  0  0  0  0  0  0
    6.5645   -0.2548   -1.4170 O   0  0  0  0  0  0  0  0  0  0  0  0
    4.2157   -0.4698   -1.1327 C   0  0  0  0  0  0  0  0  0  0  0  0
   -1.5707   -0.1827    0.4894 C   0  0  0  0  0  0  0  0  0  0  0  0
   -2.9188   -0.5156    0.1291 O   0  0  0  0  0  0  0  0  0  0  0  0
   -1.4470    1.3317    0.3847 C   0  0  0  0  0  0  0  0  0  0  0  0
   -1.5700    1.9858   -0.8575 C   0  0  0  0  0  0  0  0  0  0  0  0
   -1.4363    3.3665   -0.9316 C   0  0  0  0  0  0  0  0  0  0  0  0
   -1.5472    3.9864   -2.1426 O   0  0  0  0  0  0  0  0  0  0  0  0
   -1.1952    4.1124    0.2135 C   0  0  0  0  0  0  0  0  0  0  0  0
   -1.0696    5.4718    0.1124 O   0  0  0  0  0  0  0  0  0  0  0  0
   -1.0876    3.4841    1.4488 C   0  0  0  0  0  0  0  0  0  0  0  0
   -0.8590    4.2700    2.5474 O   0  0  0  0  0  0  0  0  0  0  0  0
   -1.2107    2.1002    1.5446 C   0  0  0  0  0  0  0  0  0  0  0  0
   -2.5367   -4.1718   -0.1727 C   0  0  0  0  0  0  0  0  0  0  0  0
   -1.5570   -5.1207   -0.2609 O   0  0  0  0  0  0  0  0  0  0  0  0
   -3.8778   -4.5504   -0.1561 C   0  0  0  0  0  0  0  0  0  0  0  0
   -6.7271   -3.1840   -0.0060 H   0  0  0  0  0  0  0  0  0  0  0  0
   -5.2721   -1.4529    0.1073 H   0  0  0  0  0  0  0  0  0  0  0  0
   -0.2434   -2.7082    0.8193 H   0  0  0  0  0  0  0  0  0  0  0  0
   -0.1826   -2.9809   -0.9194 H   0  0  0  0  0  0  0  0  0  0  0  0
   -0.7209   -0.7039   -1.4390 H   0  0  0  0  0  0  0  0  0  0  0  0
    2.2076    1.0413    1.1978 H   0  0  0  0  0  0  0  0  0  0  0  0
    5.2483    1.9469    2.5552 H   0  0  0  0  0  0  0  0  0  0  0  0
    6.4904    2.4758    0.8192 H   0  0  0  0  0  0  0  0  0  0  0  0
    7.2925    0.2009   -0.9504 H   0  0  0  0  0  0  0  0  0  0  0  0
    4.1828   -1.1481   -1.9826 H   0  0  0  0  0  0  0  0  0  0  0  0
   -1.4230   -0.4578    1.5440 H   0  0  0  0  0  0  0  0  0  0  0  0
   -1.7722    1.4261   -1.7676 H   0  0  0  0  0  0  0  0  0  0  0  0
   -1.4364    4.9386   -1.9408 H   0  0  0  0  0  0  0  0  0  0  0  0
   -0.9248    5.7668    1.0364 H   0  0  0  0  0  0  0  0  0  0  0  0
   -0.8631    3.6995    3.3367 H   0  0  0  0  0  0  0  0  0  0  0  0
   -1.1248    1.6081    2.5100 H   0  0  0  0  0  0  0  0  0  0  0  0
   -1.9746   -5.9913   -0.3742 H   0  0  0  0  0  0  0  0  0  0  0  0
   -4.1752   -5.5922   -0.2158 H   0  0  0  0  0  0  0  0  0  0  0  0
  1  2  1  0
  2  3  2  0
  3  4  1  0
  4  5  2  0
  5  6  1  0
  6  7  1  0
  7  8  1  0
  8  9  1  0
  9 10  2  0
  9 11  1  0
 11 12  2  0
 12 13  1  0
 13 14  1  0
 13 15  2  0
 15 16  1  0
 15 17  1  0
 17 18  1  0
 17 19  2  0
  7 20  1  0
 20 21  1  0
 20 22  1  0
 22 23  2  0
 23 24  1  0
 24 25  1  0
 24 26  2  0
 26 27  1  0
 26 28  1  0
 28 29  1  0
 28 30  2  0
  5 31  1  0
 31 32  1  0
 31 33  2  0
 33  2  1  0
 21  4  1  0
 30 22  1  0
 19 11  1  0
  1 34  1  0
  3 35  1  0
  6 36  1  0
  6 37  1  0
  7 38  1  0
 12 39  1  0
 14 40  1  0
 16 41  1  0
 18 42  1  0
 19 43  1  0
 20 44  1  0
 23 45  1  0
 25 46  1  0
 27 47  1  0
 29 48  1  0
 30 49  1  0
 32 50  1  0
 33 51  1  0
M  END
$$$$
