
     RDKit          3D

 30 30  0  0  0  0  0  0  0  0999 V2000
    4.2694    0.6325   -0.5698 C   0  0  0  0  0  0  0  0  0  0  0  0
    3.1708   -0.3244   -0.1096 C   0  0  0  0  0  0  0  0  0  0  0  0
    3.4373   -0.7835    1.3230 C   0  0  0  0  0  0  0  0  0  0  0  0
    1.7888    0.3289   -0.2168 C   0  0  0  0  0  0  0  0  0  0  0  0
    1.6533    1.5287   -0.4289 O   0  0  0  0  0  0  0  0  0  0  0  0
    0.7581   -0.5843   -0.0466 N   0  0  0  0  0  0  0  0  0  0  0  0
   -0.6294   -0.3300   -0.0644 C   0  0  0  0  0  0  0  0  0  0  0  0
   -1.1910    0.9380   -0.2473 C   0  0  0  0  0  0  0  0  0  0  0  0
   -2.5869    1.1280   -0.2566 C   0  0  0  0  0  0  0  0  0  0  0  0
   -3.4280    0.0227   -0.0645 C   0  0  0  0  0  0  0  0  0  0  0  0
   -2.8693   -1.2475    0.1192 C   0  0  0  0  0  0  0  0  0  0  0  0
   -1.4783   -1.4269    0.1188 C   0  0  0  0  0  0  0  0  0  0  0  0
   -3.7474   -2.4081    0.3175 N   0  0  0  0  0  4  0  0  0  0  0  0
   -3.2110   -3.5153    0.4660 O   0  0  0  0  0  1  0  0  0  0  0  0
   -4.9699   -2.2106    0.3249 O   0  0  0  0  0  0  0  0  0  0  0  0
   -3.1562    2.5164   -0.4377 C   0  0  0  0  0  0  0  0  0  0  0  0
   -4.4733    2.5088   -0.7851 F   0  0  0  0  0  0  0  0  0  0  0  0
   -2.5214    3.2287   -1.4069 F   0  0  0  0  0  0  0  0  0  0  0  0
   -3.0738    3.2586    0.6990 F   0  0  0  0  0  0  0  0  0  0  0  0
    5.2482    0.1419   -0.5465 H   0  0  0  0  0  0  0  0  0  0  0  0
    4.0867    0.9703   -1.5958 H   0  0  0  0  0  0  0  0  0  0  0  0
    4.3199    1.5216    0.0684 H   0  0  0  0  0  0  0  0  0  0  0  0
    3.1810   -1.1964   -0.7758 H   0  0  0  0  0  0  0  0  0  0  0  0
    2.7082   -1.5333    1.6470 H   0  0  0  0  0  0  0  0  0  0  0  0
    3.3762    0.0566    2.0238 H   0  0  0  0  0  0  0  0  0  0  0  0
    4.4331   -1.2305    1.4108 H   0  0  0  0  0  0  0  0  0  0  0  0
    1.0346   -1.5493    0.0908 H   0  0  0  0  0  0  0  0  0  0  0  0
   -0.5621    1.8153   -0.3881 H   0  0  0  0  0  0  0  0  0  0  0  0
   -4.5091    0.1637   -0.0608 H   0  0  0  0  0  0  0  0  0  0  0  0
   -1.0586   -2.4204    0.2637 H   0  0  0  0  0  0  0  0  0  0  0  0
  1  2  1  0
  2  3  1  0
  2  4  1  0
  4  5  2  0
  4  6  1  0
  6  7  1  0
  7  8  2  0
  8  9  1  0
  9 10  2  0
 10 11  1  0
 11 12  2  0
 11 13  1  0
 13 14  1  0
 13 15  2  0
  9 16  1  0
 16 17  1  0
 16 18  1  0
 16 19  1  0
 12  7  1  0
  1 20  1  0
  1 21  1  0
  1 22  1  0
  2 23  1  0
  3 24  1  0
  3 25  1  0
  3 26  1  0
  6 27  1  0
  8 28  1  0
 10 29  1  0
 12 30  1  0
M  CHG  2  13   1  14  -1
M  END
$$$$
