
     RDKit          3D

 64 67  0  0  0  0  0  0  0  0999 V2000
   -2.4792    5.2996    0.2955 C   0  0  0  0  0  0  0  0  0  0  0  0
   -2.5136    3.8030    0.4103 C   0  0  0  0  0  0  0  0  0  0  0  0
   -2.9087    3.2130    1.4077 O   0  0  0  0  0  0  0  0  0  0  0  0
   -1.9409    2.9612   -1.0263 S   0  0  0  0  0  0  0  0  0  0  0  0
   -1.8017    1.2452   -0.3713 C   0  0  0  0  0  0  0  0  0  0  0  0
   -3.1824    0.5903   -0.5118 C   0  0  0  0  0  0  0  0  0  0  0  0
   -3.1978   -0.8636   -0.1025 C   0  0  0  0  0  0  0  0  0  0  0  0
   -4.1861   -1.3231    0.6871 C   0  0  0  0  0  0  0  0  0  0  0  0
   -4.3631   -2.7715    0.9546 C   0  0  0  0  0  0  0  0  0  0  0  0
   -5.2585   -3.1444    1.7076 O   0  0  0  0  0  0  0  0  0  0  0  0
   -3.4795   -3.7402    0.2109 C   0  0  0  0  0  0  0  0  0  0  0  0
   -2.0955   -3.1307    0.0288 C   0  0  0  0  0  0  0  0  0  0  0  0
   -2.1101   -1.7513   -0.6974 C   0  0  0  0  0  0  0  0  0  0  0  0
   -2.4602   -2.0051   -2.1886 C   0  0  0  0  0  0  0  0  0  0  0  0
   -0.6881   -1.0577   -0.6224 C   0  0  0  0  0  0  0  0  0  0  0  0
    0.0071   -1.1305    0.7538 C   0  0  0  0  0  0  0  0  0  0  0  0
    1.4338   -0.5728    0.7168 C   0  0  0  0  0  0  0  0  0  0  0  0
    1.5422    0.8885    0.2435 C   0  0  0  0  0  0  0  0  0  0  0  0
    1.0919    1.8296    1.3776 C   0  0  0  0  0  0  0  0  0  0  0  0
    0.7118    1.0670   -1.0615 C   0  0  0  0  0  0  0  0  0  0  0  0
    1.6460    0.5211   -2.1696 C   0  0  0  0  0  0  0  0  0  0  0  0
    3.0841    0.6653   -1.6540 C   0  0  0  0  0  0  0  0  0  0  0  0
    2.9605    1.3086   -0.2719 C   0  0  0  0  0  0  0  0  0  0  0  0
    2.9063    2.7443   -0.5340 O   0  0  0  0  0  0  0  0  0  0  0  0
    4.2054    1.1294    0.6299 C   0  0  0  0  0  0  0  0  0  0  0  0
    4.9160    2.1201    0.8712 O   0  0  0  0  0  0  0  0  0  0  0  0
    4.5657   -0.2106    1.2519 C   0  0  0  0  0  0  0  0  0  0  0  0
    4.4886   -1.3042    0.3598 O   0  0  0  0  0  0  0  0  0  0  0  0
    4.8953   -2.5203    0.9757 C   0  0  0  0  0  0  0  0  0  0  0  0
   -0.7052    0.4253   -1.1185 C   0  0  0  0  0  0  0  0  0  0  0  0
   -1.4523    5.6435    0.1425 H   0  0  0  0  0  0  0  0  0  0  0  0
   -3.1170    5.6313   -0.5286 H   0  0  0  0  0  0  0  0  0  0  0  0
   -2.8565    5.7413    1.2229 H   0  0  0  0  0  0  0  0  0  0  0  0
   -1.5484    1.2960    0.6883 H   0  0  0  0  0  0  0  0  0  0  0  0
   -3.9220    1.1501    0.0750 H   0  0  0  0  0  0  0  0  0  0  0  0
   -3.5204    0.6440   -1.5557 H   0  0  0  0  0  0  0  0  0  0  0  0
   -4.9543   -0.6799    1.1036 H   0  0  0  0  0  0  0  0  0  0  0  0
   -3.3922   -4.6560    0.8061 H   0  0  0  0  0  0  0  0  0  0  0  0
   -3.9504   -3.9980   -0.7412 H   0  0  0  0  0  0  0  0  0  0  0  0
   -1.4460   -3.8368   -0.5028 H   0  0  0  0  0  0  0  0  0  0  0  0
   -1.6901   -3.0268    1.0407 H   0  0  0  0  0  0  0  0  0  0  0  0
   -1.7425   -2.6975   -2.6438 H   0  0  0  0  0  0  0  0  0  0  0  0
   -2.4498   -1.0887   -2.7864 H   0  0  0  0  0  0  0  0  0  0  0  0
   -3.4588   -2.4401   -2.3075 H   0  0  0  0  0  0  0  0  0  0  0  0
   -0.0458   -1.6303   -1.3057 H   0  0  0  0  0  0  0  0  0  0  0  0
   -0.5892   -0.6303    1.5234 H   0  0  0  0  0  0  0  0  0  0  0  0
    0.1162   -2.1723    1.0702 H   0  0  0  0  0  0  0  0  0  0  0  0
    2.0152   -1.2315    0.0634 H   0  0  0  0  0  0  0  0  0  0  0  0
    1.8528   -0.6768    1.7226 H   0  0  0  0  0  0  0  0  0  0  0  0
    0.1769    1.4918    1.8682 H   0  0  0  0  0  0  0  0  0  0  0  0
    0.9123    2.8487    1.0195 H   0  0  0  0  0  0  0  0  0  0  0  0
    1.8584    1.8835    2.1593 H   0  0  0  0  0  0  0  0  0  0  0  0
    0.6181    2.1392   -1.2683 H   0  0  0  0  0  0  0  0  0  0  0  0
    1.4516   -0.5288   -2.4080 H   0  0  0  0  0  0  0  0  0  0  0  0
    1.5043    1.0854   -3.0985 H   0  0  0  0  0  0  0  0  0  0  0  0
    3.6708    1.2845   -2.3424 H   0  0  0  0  0  0  0  0  0  0  0  0
    3.5560   -0.3196   -1.6283 H   0  0  0  0  0  0  0  0  0  0  0  0
    3.7860    3.1050   -0.2919 H   0  0  0  0  0  0  0  0  0  0  0  0
    5.5999   -0.1268    1.6097 H   0  0  0  0  0  0  0  0  0  0  0  0
    3.9276   -0.3694    2.1258 H   0  0  0  0  0  0  0  0  0  0  0  0
    4.2460   -2.7541    1.8251 H   0  0  0  0  0  0  0  0  0  0  0  0
    5.9375   -2.4551    1.3032 H   0  0  0  0  0  0  0  0  0  0  0  0
    4.8104   -3.3234    0.2389 H   0  0  0  0  0  0  0  0  0  0  0  0
   -0.9887    0.4123   -2.1801 H   0  0  0  0  0  0  0  0  0  0  0  0
  1  2  1  0
  2  3  2  0
  2  4  1  0
  4  5  1  0
  5  6  1  0
  6  7  1  0
  7  8  2  0
  8  9  1  0
  9 10  2  0
  9 11  1  0
 11 12  1  0
 12 13  1  0
 13 14  1  0
 13 15  1  0
 15 16  1  0
 16 17  1  0
 17 18  1  0
 18 19  1  0
 18 20  1  0
 20 21  1  0
 21 22  1  0
 22 23  1  0
 23 24  1  0
 23 25  1  0
 25 26  2  0
 25 27  1  0
 27 28  1  0
 28 29  1  0
 20 30  1  0
 30  5  1  0
 13  7  1  0
 30 15  1  0
 23 18  1  0
  1 31  1  0
  1 32  1  0
  1 33  1  0
  5 34  1  0
  6 35  1  0
  6 36  1  0
  8 37  1  0
 11 38  1  0
 11 39  1  0
 12 40  1  0
 12 41  1  0
 14 42  1  0
 14 43  1  0
 14 44  1  0
 15 45  1  0
 16 46  1  0
 16 47  1  0
 17 48  1  0
 17 49  1  0
 19 50  1  0
 19 51  1  0
 19 52  1  0
 20 53  1  0
 21 54  1  0
 21 55  1  0
 22 56  1  0
 22 57  1  0
 24 58  1  0
 27 59  1  0
 27 60  1  0
 29 61  1  0
 29 62  1  0
 29 63  1  0
 30 64  1  0
M  END
$$$$
