
     RDKit          3D

 43 43  0  0  0  0  0  0  0  0999 V2000
   -5.3011    0.2103    2.1867 C   0  0  0  0  0  0  0  0  0  0  0  0
   -4.9070    0.0993    0.7392 C   0  0  0  0  0  0  0  0  0  0  0  0
   -5.8306    0.3495   -0.2944 C   0  0  0  0  0  0  0  0  0  0  0  0
   -5.4163    0.2190   -1.6277 C   0  0  0  0  0  0  0  0  0  0  0  0
   -4.1049   -0.1487   -1.9375 C   0  0  0  0  0  0  0  0  0  0  0  0
   -3.1759   -0.3830   -0.9217 C   0  0  0  0  0  0  0  0  0  0  0  0
   -3.5899   -0.2697    0.4118 C   0  0  0  0  0  0  0  0  0  0  0  0
   -1.8119   -0.7957   -1.2828 C   0  0  0  0  0  0  0  0  0  0  0  0
   -0.7106   -0.3014   -0.6920 C   0  0  0  0  0  0  0  0  0  0  0  0
    0.6788   -0.6582   -0.9994 C   0  0  0  0  0  0  0  0  0  0  0  0
    1.6622   -0.0363   -0.3134 C   0  0  0  0  0  0  0  0  0  0  0  0
    3.0942   -0.2279   -0.4489 C   0  0  0  0  0  0  0  0  0  0  0  0
    3.9870    0.4512    0.2924 C   0  0  0  0  0  0  0  0  0  0  0  0
    5.4491    0.3315    0.2298 C   0  0  0  0  0  0  0  0  0  0  0  0
    6.1823    1.1351    1.0281 C   0  0  0  0  0  0  0  0  0  0  0  0
    7.6524    1.2041    1.1159 C   0  0  0  0  0  0  0  0  0  0  0  0
    8.4902    0.6467    0.4379 O   0  0  0  0  0  0  0  0  0  0  0  0
    8.0005    2.0349    2.1150 O   0  0  0  0  0  0  0  0  0  0  0  0
    6.0192   -0.6918   -0.7208 C   0  0  0  0  0  0  0  0  0  0  0  0
    0.9029   -1.7038   -2.0645 C   0  0  0  0  0  0  0  0  0  0  0  0
   -7.2511    0.7462    0.0006 C   0  0  0  0  0  0  0  0  0  0  0  0
   -6.0994   -0.5016    2.4188 H   0  0  0  0  0  0  0  0  0  0  0  0
   -4.4592   -0.0100    2.8515 H   0  0  0  0  0  0  0  0  0  0  0  0
   -5.6399    1.2265    2.4120 H   0  0  0  0  0  0  0  0  0  0  0  0
   -6.1150    0.4029   -2.4411 H   0  0  0  0  0  0  0  0  0  0  0  0
   -3.8151   -0.2403   -2.9817 H   0  0  0  0  0  0  0  0  0  0  0  0
   -2.8826   -0.4823    1.2112 H   0  0  0  0  0  0  0  0  0  0  0  0
   -1.7517   -1.5229   -2.0869 H   0  0  0  0  0  0  0  0  0  0  0  0
   -0.8421    0.4498    0.0871 H   0  0  0  0  0  0  0  0  0  0  0  0
    1.3795    0.7040    0.4363 H   0  0  0  0  0  0  0  0  0  0  0  0
    3.4371   -0.9472   -1.1831 H   0  0  0  0  0  0  0  0  0  0  0  0
    3.6049    1.1720    1.0161 H   0  0  0  0  0  0  0  0  0  0  0  0
    5.6861    1.8362    1.6945 H   0  0  0  0  0  0  0  0  0  0  0  0
    8.9802    2.0189    2.0952 H   0  0  0  0  0  0  0  0  0  0  0  0
    5.6016   -1.6835   -0.5119 H   0  0  0  0  0  0  0  0  0  0  0  0
    5.7836   -0.4234   -1.7566 H   0  0  0  0  0  0  0  0  0  0  0  0
    7.1012   -0.8059   -0.6589 H   0  0  0  0  0  0  0  0  0  0  0  0
    0.4121   -2.6438   -1.7883 H   0  0  0  0  0  0  0  0  0  0  0  0
    1.9545   -1.9424   -2.2354 H   0  0  0  0  0  0  0  0  0  0  0  0
    0.4986   -1.3648   -3.0249 H   0  0  0  0  0  0  0  0  0  0  0  0
   -7.8232    0.9067   -0.9195 H   0  0  0  0  0  0  0  0  0  0  0  0
   -7.2749    1.6810    0.5695 H   0  0  0  0  0  0  0  0  0  0  0  0
   -7.7556   -0.0414    0.5691 H   0  0  0  0  0  0  0  0  0  0  0  0
  1  2  1  0
  2  3  2  0
  3  4  1  0
  4  5  2  0
  5  6  1  0
  6  7  2  0
  6  8  1  0
  8  9  2  0
  9 10  1  0
 10 11  2  0
 11 12  1  0
 12 13  2  0
 13 14  1  0
 14 15  2  0
 15 16  1  0
 16 17  2  0
 16 18  1  0
 14 19  1  0
 10 20  1  0
  3 21  1  0
  7  2  1  0
  1 22  1  0
  1 23  1  0
  1 24  1  0
  4 25  1  0
  5 26  1  0
  7 27  1  0
  8 28  1  0
  9 29  1  0
 11 30  1  0
 12 31  1  0
 13 32  1  0
 15 33  1  0
 18 34  1  0
 19 35  1  0
 19 36  1  0
 19 37  1  0
 20 38  1  0
 20 39  1  0
 20 40  1  0
 21 41  1  0
 21 42  1  0
 21 43  1  0
M  END
$$$$
