
     RDKit          3D

 31 33  0  0  0  0  0  0  0  0999 V2000
    4.7333    2.4007   -0.6284 O   0  0  0  0  0  0  0  0  0  0  0  0
    3.8882    1.3696   -0.3450 C   0  0  0  0  0  0  0  0  0  0  0  0
    4.4550    0.1449   -0.0095 C   0  0  0  0  0  0  0  0  0  0  0  0
    3.6281   -0.9407    0.2880 C   0  0  0  0  0  0  0  0  0  0  0  0
    4.2025   -2.1355    0.6135 O   0  0  0  0  0  0  0  0  0  0  0  0
    2.2351   -0.7991    0.2499 C   0  0  0  0  0  0  0  0  0  0  0  0
    1.3006   -1.9017    0.5535 C   0  0  0  0  0  0  0  0  0  0  0  0
    1.6230   -3.0401    0.8780 O   0  0  0  0  0  0  0  0  0  0  0  0
   -0.1509   -1.6001    0.4565 C   0  0  0  0  0  0  0  0  0  0  0  0
   -1.0177   -2.6383    0.7513 O   0  0  0  0  0  0  0  0  0  0  0  0
   -0.5431   -0.3616    0.1124 C   0  0  0  0  0  0  0  0  0  0  0  0
    0.3356    0.6774   -0.1528 O   0  0  0  0  0  0  0  0  0  0  0  0
    1.6857    0.4396   -0.0893 C   0  0  0  0  0  0  0  0  0  0  0  0
    2.5090    1.5291   -0.3880 C   0  0  0  0  0  0  0  0  0  0  0  0
   -1.9615    0.0410   -0.0002 C   0  0  0  0  0  0  0  0  0  0  0  0
   -2.3919    1.2486    0.5730 C   0  0  0  0  0  0  0  0  0  0  0  0
   -3.7216    1.6610    0.4559 C   0  0  0  0  0  0  0  0  0  0  0  0
   -4.6280    0.8716   -0.2393 C   0  0  0  0  0  0  0  0  0  0  0  0
   -5.9156    1.3099   -0.3284 O   0  0  0  0  0  0  0  0  0  0  0  0
   -4.2270   -0.3241   -0.8236 C   0  0  0  0  0  0  0  0  0  0  0  0
   -2.8950   -0.7341   -0.7063 C   0  0  0  0  0  0  0  0  0  0  0  0
    4.2117    3.1910   -0.8493 H   0  0  0  0  0  0  0  0  0  0  0  0
    5.5370    0.0545    0.0143 H   0  0  0  0  0  0  0  0  0  0  0  0
    5.1702   -2.0586    0.5982 H   0  0  0  0  0  0  0  0  0  0  0  0
   -0.4278   -3.3869    0.9907 H   0  0  0  0  0  0  0  0  0  0  0  0
    2.0594    2.4821   -0.6497 H   0  0  0  0  0  0  0  0  0  0  0  0
   -1.6952    1.8765    1.1236 H   0  0  0  0  0  0  0  0  0  0  0  0
   -4.0472    2.5936    0.9075 H   0  0  0  0  0  0  0  0  0  0  0  0
   -6.4340    0.6473   -0.8137 H   0  0  0  0  0  0  0  0  0  0  0  0
   -4.9261   -0.9481   -1.3708 H   0  0  0  0  0  0  0  0  0  0  0  0
   -2.5916   -1.6695   -1.1722 H   0  0  0  0  0  0  0  0  0  0  0  0
  1  2  1  0
  2  3  2  0
  3  4  1  0
  4  5  1  0
  4  6  2  0
  6  7  1  0
  7  8  2  0
  7  9  1  0
  9 10  1  0
  9 11  2  0
 11 12  1  0
 12 13  1  0
 13 14  2  0
 11 15  1  0
 15 16  2  0
 16 17  1  0
 17 18  2  0
 18 19  1  0
 18 20  1  0
 20 21  2  0
 14  2  1  0
 21 15  1  0
 13  6  1  0
  1 22  1  0
  3 23  1  0
  5 24  1  0
 10 25  1  0
 14 26  1  0
 16 27  1  0
 17 28  1  0
 19 29  1  0
 20 30  1  0
 21 31  1  0
M  END
$$$$
