
     RDKit          3D

 40 42  0  0  0  0  0  0  0  0999 V2000
    5.6761    0.2807    0.4937 C   0  0  0  0  0  0  0  0  0  0  0  0
    4.3379    0.8413    0.8662 C   0  0  0  0  0  0  0  0  0  0  0  0
    4.1709    1.9055    1.4428 O   0  0  0  0  0  0  0  0  0  0  0  0
    3.3514   -0.0123    0.4737 O   0  0  0  0  0  0  0  0  0  0  0  0
    2.0223    0.4516    0.7576 C   0  0  0  0  0  0  0  0  0  0  0  0
    1.0379   -0.6998    0.5487 C   0  0  0  0  0  0  0  0  0  0  0  0
    0.8842   -1.0910   -0.9017 C   0  0  0  0  0  0  0  0  0  0  0  0
   -0.2557   -0.3570   -1.3501 O   0  0  0  0  0  0  0  0  0  0  0  0
   -1.1017   -0.2257   -0.1880 C   0  0  0  0  0  0  0  0  0  0  0  0
   -1.8415    1.1298   -0.2514 C   0  0  0  0  0  0  0  0  0  0  0  0
   -0.9562    2.2783   -0.3111 N   0  0  0  0  0  0  0  0  0  0  0  0
   -0.3998    2.7996   -1.4441 C   0  0  0  0  0  0  0  0  0  0  0  0
    0.3331    3.8557   -1.1741 N   0  0  0  0  0  0  0  0  0  0  0  0
    0.2308    4.0311    0.1824 C   0  0  0  0  0  0  0  0  0  0  0  0
   -0.5769    3.0667    0.7390 C   0  0  0  0  0  0  0  0  0  0  0  0
   -2.1481   -1.3568   -0.1784 C   0  0  0  0  0  0  0  0  0  0  0  0
   -2.4137   -2.0655   -1.3730 C   0  0  0  0  0  0  0  0  0  0  0  0
   -3.3570   -3.0953   -1.4200 C   0  0  0  0  0  0  0  0  0  0  0  0
   -4.0654   -3.4328   -0.2746 C   0  0  0  0  0  0  0  0  0  0  0  0
   -5.2272   -4.6992   -0.3288 Cl  0  0  0  0  0  0  0  0  0  0  0  0
   -3.8457   -2.7436    0.9122 C   0  0  0  0  0  0  0  0  0  0  0  0
   -2.9009   -1.7094    0.9619 C   0  0  0  0  0  0  0  0  0  0  0  0
   -2.7566   -0.8938    2.4809 Cl  0  0  0  0  0  0  0  0  0  0  0  0
   -0.2742   -0.3271    0.9787 O   0  0  0  0  0  0  0  0  0  0  0  0
    6.4596    0.9810    0.7970 H   0  0  0  0  0  0  0  0  0  0  0  0
    5.8370   -0.6686    1.0107 H   0  0  0  0  0  0  0  0  0  0  0  0
    5.7325    0.1442   -0.5892 H   0  0  0  0  0  0  0  0  0  0  0  0
    1.7924    1.2892    0.0927 H   0  0  0  0  0  0  0  0  0  0  0  0
    1.9494    0.8029    1.7943 H   0  0  0  0  0  0  0  0  0  0  0  0
    1.3778   -1.5614    1.1347 H   0  0  0  0  0  0  0  0  0  0  0  0
    1.7513   -0.8680   -1.5294 H   0  0  0  0  0  0  0  0  0  0  0  0
    0.6588   -2.1590   -0.9977 H   0  0  0  0  0  0  0  0  0  0  0  0
   -2.4746    1.1842   -1.1465 H   0  0  0  0  0  0  0  0  0  0  0  0
   -2.4870    1.2849    0.6197 H   0  0  0  0  0  0  0  0  0  0  0  0
   -0.5507    2.3722   -2.4272 H   0  0  0  0  0  0  0  0  0  0  0  0
    0.7443    4.8405    0.6854 H   0  0  0  0  0  0  0  0  0  0  0  0
   -0.8870    2.8800    1.7579 H   0  0  0  0  0  0  0  0  0  0  0  0
   -1.8814   -1.8214   -2.2924 H   0  0  0  0  0  0  0  0  0  0  0  0
   -3.5317   -3.6252   -2.3536 H   0  0  0  0  0  0  0  0  0  0  0  0
   -4.4147   -3.0066    1.8011 H   0  0  0  0  0  0  0  0  0  0  0  0
  1  2  1  0
  2  3  2  0
  2  4  1  0
  4  5  1  0
  5  6  1  0
  6  7  1  0
  7  8  1  0
  8  9  1  0
  9 10  1  0
 10 11  1  0
 11 12  1  0
 12 13  2  0
 13 14  1  0
 14 15  2  0
  9 16  1  0
 16 17  2  0
 17 18  1  0
 18 19  2  0
 19 20  1  0
 19 21  1  0
 21 22  2  0
 22 23  1  0
  9 24  1  0
 15 11  1  0
 22 16  1  0
 24  6  1  0
  1 25  1  0
  1 26  1  0
  1 27  1  0
  5 28  1  0
  5 29  1  0
  6 30  1  0
  7 31  1  0
  7 32  1  0
 10 33  1  0
 10 34  1  0
 12 35  1  0
 14 36  1  0
 15 37  1  0
 17 38  1  0
 18 39  1  0
 21 40  1  0
M  END
$$$$
