
     RDKit          3D

 49 51  0  0  0  0  0  0  0  0999 V2000
   -0.7224    4.3342    0.4309 C   0  0  0  0  0  0  0  0  0  0  0  0
   -0.4614    2.8550    0.4913 C   0  0  0  0  0  0  0  0  0  0  0  0
   -1.5380    1.9580    0.3051 C   0  0  0  0  0  0  0  0  0  0  0  0
   -1.2911    0.5755    0.2249 C   0  0  0  0  0  0  0  0  0  0  0  0
    0.0293    0.1132    0.2791 C   0  0  0  0  0  0  0  0  0  0  0  0
    1.0924    1.0036    0.5001 C   0  0  0  0  0  0  0  0  0  0  0  0
    0.8494    2.3655    0.6305 C   0  0  0  0  0  0  0  0  0  0  0  0
    2.4022    0.5246    0.6300 N   0  0  0  0  0  0  0  0  0  0  0  0
    3.0094   -0.2020   -0.3893 C   0  0  0  0  0  0  0  0  0  0  0  0
    2.5288   -0.3533   -1.5287 O   0  0  0  0  0  0  0  0  0  0  0  0
    4.4145   -0.6350   -0.1296 C   0  0  0  0  0  0  0  0  0  0  0  0
    5.2978   -0.8408   -1.2142 C   0  0  0  0  0  0  0  0  0  0  0  0
    6.6177   -1.2416   -0.9693 C   0  0  0  0  0  0  0  0  0  0  0  0
    7.0664   -1.4834    0.3368 C   0  0  0  0  0  0  0  0  0  0  0  0
    6.1756   -1.2832    1.4025 C   0  0  0  0  0  0  0  0  0  0  0  0
    4.8614   -0.8874    1.1731 C   0  0  0  0  0  0  0  0  0  0  0  0
    8.4823   -1.9427    0.5742 C   0  0  0  0  0  0  0  0  0  0  0  0
    8.6237   -2.6295    1.7403 F   0  0  0  0  0  0  0  0  0  0  0  0
    8.9488   -2.7596   -0.4077 F   0  0  0  0  0  0  0  0  0  0  0  0
    9.3458   -0.8937    0.6446 F   0  0  0  0  0  0  0  0  0  0  0  0
   -2.3803   -0.4370    0.1438 C   0  0  0  0  0  0  0  0  0  0  0  0
   -2.1267   -1.6226    0.3633 O   0  0  0  0  0  0  0  0  0  0  0  0
   -3.6472    0.0002   -0.1779 N   0  0  0  0  0  0  0  0  0  0  0  0
   -4.7771   -0.8897   -0.2998 C   0  0  0  0  0  0  0  0  0  0  0  0
   -5.4281   -0.7750   -1.6696 C   0  0  0  0  0  0  0  0  0  0  0  0
   -6.8838   -1.1853   -1.4795 C   0  0  0  0  0  0  0  0  0  0  0  0
   -7.1830   -1.0220    0.0074 C   0  0  0  0  0  0  0  0  0  0  0  0
   -5.9169   -0.4923    0.6478 C   0  0  0  0  0  0  0  0  0  0  0  0
   -0.6964    4.6759   -0.6110 H   0  0  0  0  0  0  0  0  0  0  0  0
    0.0366    4.8915    0.9911 H   0  0  0  0  0  0  0  0  0  0  0  0
   -1.7005    4.5837    0.8520 H   0  0  0  0  0  0  0  0  0  0  0  0
   -2.5503    2.3759    0.2424 H   0  0  0  0  0  0  0  0  0  0  0  0
    0.2293   -0.9573    0.2216 H   0  0  0  0  0  0  0  0  0  0  0  0
    1.6689    3.0712    0.7681 H   0  0  0  0  0  0  0  0  0  0  0  0
    3.0430    1.0574    1.2167 H   0  0  0  0  0  0  0  0  0  0  0  0
    4.9571   -0.6637   -2.2270 H   0  0  0  0  0  0  0  0  0  0  0  0
    7.2931   -1.3773   -1.8209 H   0  0  0  0  0  0  0  0  0  0  0  0
    6.5111   -1.4643    2.4285 H   0  0  0  0  0  0  0  0  0  0  0  0
    4.1898   -0.7872    2.0103 H   0  0  0  0  0  0  0  0  0  0  0  0
   -3.7957    0.9638   -0.4329 H   0  0  0  0  0  0  0  0  0  0  0  0
   -4.4851   -1.9368   -0.1016 H   0  0  0  0  0  0  0  0  0  0  0  0
   -4.9122   -1.3889   -2.4228 H   0  0  0  0  0  0  0  0  0  0  0  0
   -5.3874    0.2609   -2.0300 H   0  0  0  0  0  0  0  0  0  0  0  0
   -7.0200   -2.2406   -1.7652 H   0  0  0  0  0  0  0  0  0  0  0  0
   -7.5525   -0.5877   -2.1037 H   0  0  0  0  0  0  0  0  0  0  0  0
   -8.0318   -0.3489    0.1753 H   0  0  0  0  0  0  0  0  0  0  0  0
   -7.4568   -1.9911    0.4329 H   0  0  0  0  0  0  0  0  0  0  0  0
   -5.7635   -0.8945    1.6569 H   0  0  0  0  0  0  0  0  0  0  0  0
   -5.9661    0.6045    0.7388 H   0  0  0  0  0  0  0  0  0  0  0  0
  1  2  1  0
  2  3  2  0
  3  4  1  0
  4  5  2  0
  5  6  1  0
  6  7  2  0
  6  8  1  0
  8  9  1  0
  9 10  2  0
  9 11  1  0
 11 12  2  0
 12 13  1  0
 13 14  2  0
 14 15  1  0
 15 16  2  0
 14 17  1  0
 17 18  1  0
 17 19  1  0
 17 20  1  0
  4 21  1  0
 21 22  2  0
 21 23  1  0
 23 24  1  0
 24 25  1  0
 25 26  1  0
 26 27  1  0
 27 28  1  0
  7  2  1  0
 16 11  1  0
 28 24  1  0
  1 29  1  0
  1 30  1  0
  1 31  1  0
  3 32  1  0
  5 33  1  0
  7 34  1  0
  8 35  1  0
 12 36  1  0
 13 37  1  0
 15 38  1  0
 16 39  1  0
 23 40  1  0
 24 41  1  0
 25 42  1  0
 25 43  1  0
 26 44  1  0
 26 45  1  0
 27 46  1  0
 27 47  1  0
 28 48  1  0
 28 49  1  0
M  END
$$$$
