
     RDKit          3D

 49 51  0  0  0  0  0  0  0  0999 V2000
   -0.9998   -0.7747   -4.3010 C   0  0  0  0  0  0  0  0  0  0  0  0
   -0.6970   -0.3842   -2.8833 C   0  0  0  0  0  0  0  0  0  0  0  0
   -1.7230    0.0283   -2.0249 C   0  0  0  0  0  0  0  0  0  0  0  0
   -1.4336    0.3635   -0.6978 C   0  0  0  0  0  0  0  0  0  0  0  0
   -0.1121    0.2992   -0.2354 C   0  0  0  0  0  0  0  0  0  0  0  0
    0.9208   -0.1272   -1.0766 C   0  0  0  0  0  0  0  0  0  0  0  0
    0.6173   -0.4742   -2.3952 C   0  0  0  0  0  0  0  0  0  0  0  0
    2.2208   -0.1633   -0.5287 N   0  0  0  0  0  0  0  0  0  0  0  0
    3.3766   -0.6183   -1.1367 C   0  0  0  0  0  0  0  0  0  0  0  0
    3.4686   -1.1531   -2.2349 O   0  0  0  0  0  0  0  0  0  0  0  0
    4.6164   -0.4637   -0.3225 C   0  0  0  0  0  0  0  0  0  0  0  0
    4.8208    0.6441    0.5098 C   0  0  0  0  0  0  0  0  0  0  0  0
    6.0011    0.7521    1.2523 C   0  0  0  0  0  0  0  0  0  0  0  0
    6.9922   -0.2400    1.1715 C   0  0  0  0  0  0  0  0  0  0  0  0
    6.7898   -1.3328    0.3146 C   0  0  0  0  0  0  0  0  0  0  0  0
    5.6115   -1.4426   -0.4287 C   0  0  0  0  0  0  0  0  0  0  0  0
    8.2736   -0.1035    1.9603 C   0  0  0  0  0  0  0  0  0  0  0  0
    9.1812    0.6974    1.3387 F   0  0  0  0  0  0  0  0  0  0  0  0
    8.0768    0.4398    3.1941 F   0  0  0  0  0  0  0  0  0  0  0  0
    8.9033   -1.2919    2.1747 F   0  0  0  0  0  0  0  0  0  0  0  0
   -2.4856    0.8187    0.2527 C   0  0  0  0  0  0  0  0  0  0  0  0
   -2.1821    1.5234    1.2090 O   0  0  0  0  0  0  0  0  0  0  0  0
   -3.7695    0.3714    0.0102 N   0  0  0  0  0  0  0  0  0  0  0  0
   -4.8367    0.6440    0.9504 C   0  0  0  0  0  0  0  0  0  0  0  0
   -4.8121   -0.2905    2.1680 C   0  0  0  0  0  0  0  0  0  0  0  0
   -6.2670   -0.6825    2.4329 C   0  0  0  0  0  0  0  0  0  0  0  0
   -7.1045    0.2282    1.5479 C   0  0  0  0  0  0  0  0  0  0  0  0
   -6.2186    0.4480    0.3338 C   0  0  0  0  0  0  0  0  0  0  0  0
   -1.8724   -0.2316   -4.6792 H   0  0  0  0  0  0  0  0  0  0  0  0
   -0.1588   -0.5351   -4.9600 H   0  0  0  0  0  0  0  0  0  0  0  0
   -1.2007   -1.8488   -4.3576 H   0  0  0  0  0  0  0  0  0  0  0  0
   -2.7354    0.1133   -2.4101 H   0  0  0  0  0  0  0  0  0  0  0  0
    0.0955    0.5811    0.7947 H   0  0  0  0  0  0  0  0  0  0  0  0
    1.3955   -0.8066   -3.0769 H   0  0  0  0  0  0  0  0  0  0  0  0
    2.2925    0.1234    0.4394 H   0  0  0  0  0  0  0  0  0  0  0  0
    4.0895    1.4466    0.5676 H   0  0  0  0  0  0  0  0  0  0  0  0
    6.1520    1.6223    1.8913 H   0  0  0  0  0  0  0  0  0  0  0  0
    7.5522   -2.1054    0.2183 H   0  0  0  0  0  0  0  0  0  0  0  0
    5.4700   -2.2939   -1.0933 H   0  0  0  0  0  0  0  0  0  0  0  0
   -3.8883   -0.4131   -0.6164 H   0  0  0  0  0  0  0  0  0  0  0  0
   -4.7377    1.6810    1.2969 H   0  0  0  0  0  0  0  0  0  0  0  0
   -4.3832    0.2275    3.0343 H   0  0  0  0  0  0  0  0  0  0  0  0
   -4.2053   -1.1880    1.9964 H   0  0  0  0  0  0  0  0  0  0  0  0
   -6.4228   -1.7290    2.1436 H   0  0  0  0  0  0  0  0  0  0  0  0
   -6.5352   -0.5887    3.4897 H   0  0  0  0  0  0  0  0  0  0  0  0
   -8.0683   -0.2178    1.2870 H   0  0  0  0  0  0  0  0  0  0  0  0
   -7.2936    1.1802    2.0575 H   0  0  0  0  0  0  0  0  0  0  0  0
   -6.2426   -0.4347   -0.3176 H   0  0  0  0  0  0  0  0  0  0  0  0
   -6.5322    1.3117   -0.2609 H   0  0  0  0  0  0  0  0  0  0  0  0
  1  2  1  0
  2  3  2  0
  3  4  1  0
  4  5  2  0
  5  6  1  0
  6  7  2  0
  6  8  1  0
  8  9  1  0
  9 10  2  0
  9 11  1  0
 11 12  2  0
 12 13  1  0
 13 14  2  0
 14 15  1  0
 15 16  2  0
 14 17  1  0
 17 18  1  0
 17 19  1  0
 17 20  1  0
  4 21  1  0
 21 22  2  0
 21 23  1  0
 23 24  1  0
 24 25  1  0
 25 26  1  0
 26 27  1  0
 27 28  1  0
  7  2  1  0
 16 11  1  0
 28 24  1  0
  1 29  1  0
  1 30  1  0
  1 31  1  0
  3 32  1  0
  5 33  1  0
  7 34  1  0
  8 35  1  0
 12 36  1  0
 13 37  1  0
 15 38  1  0
 16 39  1  0
 23 40  1  0
 24 41  1  0
 25 42  1  0
 25 43  1  0
 26 44  1  0
 26 45  1  0
 27 46  1  0
 27 47  1  0
 28 48  1  0
 28 49  1  0
M  END
$$$$
