
     RDKit          3D

 69 69  0  0  0  0  0  0  0  0999 V2000
   -9.4866    0.2270    0.2711 C   0  0  0  0  0  0  0  0  0  0  0  0
   -8.5550    1.4027    0.5241 C   0  0  0  0  0  0  0  0  0  0  0  0
   -7.4918    1.5833   -0.5620 C   0  0  0  0  0  0  0  0  0  0  0  0
   -6.4823    0.4326   -0.6190 C   0  0  0  0  0  0  0  0  0  0  0  0
   -5.3845    0.7157   -1.6536 C   0  0  0  0  0  0  0  0  0  0  0  0
   -4.3573   -0.4121   -1.8332 C   0  0  0  0  0  0  0  0  0  0  0  0
   -5.0051   -1.6068   -2.2563 O   0  0  0  0  0  0  0  0  0  0  0  0
   -3.5627   -0.7131   -0.5906 C   0  0  0  0  0  0  0  0  0  0  0  0
   -2.2355   -0.5304   -0.4896 C   0  0  0  0  0  0  0  0  0  0  0  0
   -1.3258   -0.8088    0.6958 C   0  0  0  0  0  0  0  0  0  0  0  0
   -1.8965   -1.5258    1.9417 C   0  0  0  0  0  0  0  0  0  0  0  0
   -2.7607   -2.6095    1.6463 O   0  0  0  0  0  0  0  0  0  0  0  0
   -2.5997   -0.4468    2.7495 C   0  0  0  0  0  0  0  0  0  0  0  0
   -1.7665    0.7601    2.4185 C   0  0  0  0  0  0  0  0  0  0  0  0
   -1.8561    1.8261    3.0160 O   0  0  0  0  0  0  0  0  0  0  0  0
   -0.7979    0.5256    1.2711 C   0  0  0  0  0  0  0  0  0  0  0  0
    0.6408    0.4470    1.8056 C   0  0  0  0  0  0  0  0  0  0  0  0
    1.6884    0.9714    0.8156 C   0  0  0  0  0  0  0  0  0  0  0  0
    1.6989    0.2496   -0.5014 C   0  0  0  0  0  0  0  0  0  0  0  0
    2.5670   -0.6903   -0.9081 C   0  0  0  0  0  0  0  0  0  0  0  0
    3.7043   -1.2847   -0.1259 C   0  0  0  0  0  0  0  0  0  0  0  0
    5.0736   -0.8993   -0.6907 C   0  0  0  0  0  0  0  0  0  0  0  0
    5.4002    0.5799   -0.4963 C   0  0  0  0  0  0  0  0  0  0  0  0
    6.7678    0.9099   -1.0385 C   0  0  0  0  0  0  0  0  0  0  0  0
    6.9650    1.6190   -2.0160 O   0  0  0  0  0  0  0  0  0  0  0  0
    7.7328    0.3156   -0.2827 O   0  0  0  0  0  0  0  0  0  0  0  0
    9.0930    0.5458   -0.6959 C   0  0  0  0  0  0  0  0  0  0  0  0
    9.4660   -0.4399   -1.7980 C   0  0  0  0  0  0  0  0  0  0  0  0
    9.9737    0.3401    0.5312 C   0  0  0  0  0  0  0  0  0  0  0  0
   -8.9539   -0.7270    0.3227 H   0  0  0  0  0  0  0  0  0  0  0  0
  -10.2775    0.2045    1.0276 H   0  0  0  0  0  0  0  0  0  0  0  0
   -9.9608    0.3058   -0.7126 H   0  0  0  0  0  0  0  0  0  0  0  0
   -8.0738    1.2836    1.5019 H   0  0  0  0  0  0  0  0  0  0  0  0
   -9.1566    2.3183    0.5770 H   0  0  0  0  0  0  0  0  0  0  0  0
   -6.9558    2.5200   -0.3651 H   0  0  0  0  0  0  0  0  0  0  0  0
   -7.9799    1.6985   -1.5376 H   0  0  0  0  0  0  0  0  0  0  0  0
   -6.9962   -0.4985   -0.8769 H   0  0  0  0  0  0  0  0  0  0  0  0
   -6.0368    0.2992    0.3723 H   0  0  0  0  0  0  0  0  0  0  0  0
   -4.8624    1.6431   -1.3848 H   0  0  0  0  0  0  0  0  0  0  0  0
   -5.8707    0.8893   -2.6230 H   0  0  0  0  0  0  0  0  0  0  0  0
   -3.6838   -0.1220   -2.6482 H   0  0  0  0  0  0  0  0  0  0  0  0
   -5.4029   -2.0260   -1.4760 H   0  0  0  0  0  0  0  0  0  0  0  0
   -4.1270   -1.1049    0.2513 H   0  0  0  0  0  0  0  0  0  0  0  0
   -1.7113   -0.1407   -1.3650 H   0  0  0  0  0  0  0  0  0  0  0  0
   -0.5113   -1.4253    0.2949 H   0  0  0  0  0  0  0  0  0  0  0  0
   -1.0654   -1.9308    2.5334 H   0  0  0  0  0  0  0  0  0  0  0  0
   -2.3514   -3.1315    0.9333 H   0  0  0  0  0  0  0  0  0  0  0  0
   -3.6357   -0.2882    2.4383 H   0  0  0  0  0  0  0  0  0  0  0  0
   -2.5658   -0.6655    3.8202 H   0  0  0  0  0  0  0  0  0  0  0  0
   -0.9112    1.3586    0.5666 H   0  0  0  0  0  0  0  0  0  0  0  0
    0.8952   -0.5812    2.0930 H   0  0  0  0  0  0  0  0  0  0  0  0
    0.7325    1.0453    2.7217 H   0  0  0  0  0  0  0  0  0  0  0  0
    1.5036    2.0348    0.6211 H   0  0  0  0  0  0  0  0  0  0  0  0
    2.6735    0.9289    1.2912 H   0  0  0  0  0  0  0  0  0  0  0  0
    0.9309    0.5608   -1.2107 H   0  0  0  0  0  0  0  0  0  0  0  0
    2.4426   -1.0913   -1.9151 H   0  0  0  0  0  0  0  0  0  0  0  0
    3.6512   -1.0250    0.9358 H   0  0  0  0  0  0  0  0  0  0  0  0
    3.6013   -2.3758   -0.1724 H   0  0  0  0  0  0  0  0  0  0  0  0
    5.1290   -1.1521   -1.7575 H   0  0  0  0  0  0  0  0  0  0  0  0
    5.8359   -1.5111   -0.1923 H   0  0  0  0  0  0  0  0  0  0  0  0
    4.6737    1.2130   -1.0193 H   0  0  0  0  0  0  0  0  0  0  0  0
    5.3669    0.8636    0.5623 H   0  0  0  0  0  0  0  0  0  0  0  0
    9.2201    1.5778   -1.0451 H   0  0  0  0  0  0  0  0  0  0  0  0
   10.5161   -0.3336   -2.0876 H   0  0  0  0  0  0  0  0  0  0  0  0
    8.8474   -0.2831   -2.6872 H   0  0  0  0  0  0  0  0  0  0  0  0
    9.2935   -1.4724   -1.4753 H   0  0  0  0  0  0  0  0  0  0  0  0
   11.0288    0.5109    0.2960 H   0  0  0  0  0  0  0  0  0  0  0  0
    9.6784    1.0279    1.3310 H   0  0  0  0  0  0  0  0  0  0  0  0
    9.8617   -0.6744    0.9315 H   0  0  0  0  0  0  0  0  0  0  0  0
  1  2  1  0
  2  3  1  0
  3  4  1  0
  4  5  1  0
  5  6  1  0
  6  7  1  0
  6  8  1  0
  8  9  2  0
  9 10  1  0
 10 11  1  0
 11 12  1  0
 11 13  1  0
 13 14  1  0
 14 15  2  0
 14 16  1  0
 16 17  1  0
 17 18  1  0
 18 19  1  0
 19 20  2  0
 20 21  1  0
 21 22  1  0
 22 23  1  0
 23 24  1  0
 24 25  2  0
 24 26  1  0
 26 27  1  0
 27 28  1  0
 27 29  1  0
 16 10  1  0
  1 30  1  0
  1 31  1  0
  1 32  1  0
  2 33  1  0
  2 34  1  0
  3 35  1  0
  3 36  1  0
  4 37  1  0
  4 38  1  0
  5 39  1  0
  5 40  1  0
  6 41  1  0
  7 42  1  0
  8 43  1  0
  9 44  1  0
 10 45  1  0
 11 46  1  0
 12 47  1  0
 13 48  1  0
 13 49  1  0
 16 50  1  0
 17 51  1  0
 17 52  1  0
 18 53  1  0
 18 54  1  0
 19 55  1  0
 20 56  1  0
 21 57  1  0
 21 58  1  0
 22 59  1  0
 22 60  1  0
 23 61  1  0
 23 62  1  0
 27 63  1  0
 28 64  1  0
 28 65  1  0
 28 66  1  0
 29 67  1  0
 29 68  1  0
 29 69  1  0
M  END
$$$$
