
     RDKit          3D

 33 34  0  0  0  0  0  0  0  0999 V2000
    4.4524    1.5568   -2.5251 C   0  0  0  0  0  0  0  0  0  0  0  0
    3.1590    1.5322   -1.9355 O   0  0  0  0  0  0  0  0  0  0  0  0
    2.8712    0.4722   -1.1166 C   0  0  0  0  0  0  0  0  0  0  0  0
    1.5897    0.5139   -0.5497 C   0  0  0  0  0  0  0  0  0  0  0  0
    1.1628   -0.5153    0.3144 C   0  0  0  0  0  0  0  0  0  0  0  0
    2.0440   -1.5617    0.5824 C   0  0  0  0  0  0  0  0  0  0  0  0
    1.4012   -2.4232    1.4398 N   0  0  0  0  0  0  0  0  0  0  0  0
    0.1439   -1.9614    1.7190 C   0  0  0  0  0  0  0  0  0  0  0  0
   -0.0457   -0.7754    1.0370 C   0  0  0  0  0  0  0  0  0  0  0  0
   -1.2823    0.0664    1.0522 C   0  0  0  0  0  0  0  0  0  0  0  0
   -2.1961   -0.2288   -0.1399 C   0  0  0  0  0  0  0  0  0  0  0  0
   -3.3542    0.6464   -0.1803 N   0  0  0  0  0  0  0  0  0  0  0  0
   -4.4547    0.4278    0.6160 C   0  0  0  0  0  0  0  0  0  0  0  0
   -5.5349    1.4600    0.4428 C   0  0  0  0  0  0  0  0  0  0  0  0
   -4.5673   -0.5221    1.3825 O   0  0  0  0  0  0  0  0  0  0  0  0
    3.3271   -1.6279    0.0292 C   0  0  0  0  0  0  0  0  0  0  0  0
    3.7247   -0.5913   -0.8262 C   0  0  0  0  0  0  0  0  0  0  0  0
    4.5978    0.7004   -3.1917 H   0  0  0  0  0  0  0  0  0  0  0  0
    5.2350    1.6015   -1.7603 H   0  0  0  0  0  0  0  0  0  0  0  0
    4.5267    2.4659   -3.1300 H   0  0  0  0  0  0  0  0  0  0  0  0
    0.9293    1.3448   -0.7780 H   0  0  0  0  0  0  0  0  0  0  0  0
    1.8032   -3.2744    1.8072 H   0  0  0  0  0  0  0  0  0  0  0  0
   -0.5137   -2.5146    2.3773 H   0  0  0  0  0  0  0  0  0  0  0  0
   -1.8266   -0.0958    1.9912 H   0  0  0  0  0  0  0  0  0  0  0  0
   -1.0013    1.1275    1.0478 H   0  0  0  0  0  0  0  0  0  0  0  0
   -1.6608   -0.0882   -1.0856 H   0  0  0  0  0  0  0  0  0  0  0  0
   -2.5430   -1.2685   -0.1059 H   0  0  0  0  0  0  0  0  0  0  0  0
   -3.2960    1.4967   -0.7250 H   0  0  0  0  0  0  0  0  0  0  0  0
   -6.2237    1.4132    1.2911 H   0  0  0  0  0  0  0  0  0  0  0  0
   -5.1025    2.4642    0.4073 H   0  0  0  0  0  0  0  0  0  0  0  0
   -6.0845    1.2612   -0.4811 H   0  0  0  0  0  0  0  0  0  0  0  0
    3.9979   -2.4518    0.2507 H   0  0  0  0  0  0  0  0  0  0  0  0
    4.7214   -0.6505   -1.2518 H   0  0  0  0  0  0  0  0  0  0  0  0
  1  2  1  0
  2  3  1  0
  3  4  2  0
  4  5  1  0
  5  6  2  0
  6  7  1  0
  7  8  1  0
  8  9  2  0
  9 10  1  0
 10 11  1  0
 11 12  1  0
 12 13  1  0
 13 14  1  0
 13 15  2  0
  6 16  1  0
 16 17  2  0
 17  3  1  0
  9  5  1  0
  1 18  1  0
  1 19  1  0
  1 20  1  0
  4 21  1  0
  7 22  1  0
  8 23  1  0
 10 24  1  0
 10 25  1  0
 11 26  1  0
 11 27  1  0
 12 28  1  0
 14 29  1  0
 14 30  1  0
 14 31  1  0
 16 32  1  0
 17 33  1  0
M  END
$$$$
