
     RDKit          3D

 29 30  0  0  0  0  0  0  0  0999 V2000
    2.8623   -1.9007   -1.6543 N   0  0  0  0  0  0  0  0  0  0  0  0
    2.2730   -1.0675   -0.6930 C   0  0  0  0  0  0  0  0  0  0  0  0
    3.0227   -0.1081   -0.0564 C   0  0  0  0  0  0  0  0  0  0  0  0
    2.3640    0.6615    0.8719 C   0  0  0  0  0  0  0  0  0  0  0  0
    3.0499    1.6640    1.5720 N   0  0  0  0  0  0  0  0  0  0  0  0
    1.0723    0.4857    1.1526 N   0  0  0  0  0  0  0  0  0  0  0  0
    0.3971   -0.4726    0.4991 C   0  0  0  0  0  0  0  0  0  0  0  0
    0.9807   -1.2546   -0.4225 N   0  0  0  0  0  0  0  0  0  0  0  0
   -0.9481   -0.6776    0.8038 N   0  0  0  0  0  0  0  0  0  0  0  0
   -1.6418    0.4346    1.4528 C   0  0  0  0  0  0  0  0  0  0  0  0
   -2.1092    1.4509    0.4071 C   0  0  0  0  0  0  0  0  0  0  0  0
   -2.9406    0.7762   -0.6866 C   0  0  0  0  0  0  0  0  0  0  0  0
   -2.2079   -0.4244   -1.2902 C   0  0  0  0  0  0  0  0  0  0  0  0
   -1.7379   -1.3910   -0.1995 C   0  0  0  0  0  0  0  0  0  0  0  0
    3.2566   -1.3446   -2.4060 H   0  0  0  0  0  0  0  0  0  0  0  0
    3.6065   -2.4453   -1.2297 H   0  0  0  0  0  0  0  0  0  0  0  0
    4.0704    0.0347   -0.2750 H   0  0  0  0  0  0  0  0  0  0  0  0
    3.4502    2.3337    0.9231 H   0  0  0  0  0  0  0  0  0  0  0  0
    3.8011    1.2524    2.1170 H   0  0  0  0  0  0  0  0  0  0  0  0
   -1.0400    0.9214    2.2292 H   0  0  0  0  0  0  0  0  0  0  0  0
   -2.5201    0.0343    1.9760 H   0  0  0  0  0  0  0  0  0  0  0  0
   -2.7031    2.2338    0.8918 H   0  0  0  0  0  0  0  0  0  0  0  0
   -1.2424    1.9427   -0.0509 H   0  0  0  0  0  0  0  0  0  0  0  0
   -3.8945    0.4410   -0.2608 H   0  0  0  0  0  0  0  0  0  0  0  0
   -3.1783    1.5008   -1.4734 H   0  0  0  0  0  0  0  0  0  0  0  0
   -1.3482   -0.0676   -1.8703 H   0  0  0  0  0  0  0  0  0  0  0  0
   -2.8706   -0.9482   -1.9881 H   0  0  0  0  0  0  0  0  0  0  0  0
   -1.2066   -2.2447   -0.6365 H   0  0  0  0  0  0  0  0  0  0  0  0
   -2.6178   -1.8210    0.2968 H   0  0  0  0  0  0  0  0  0  0  0  0
  1  2  1  0
  2  3  2  0
  3  4  1  0
  4  5  1  0
  4  6  2  0
  6  7  1  0
  7  8  2  0
  7  9  1  0
  9 10  1  0
 10 11  1  0
 11 12  1  0
 12 13  1  0
 13 14  1  0
  8  2  1  0
 14  9  1  0
  1 15  1  0
  1 16  1  0
  3 17  1  0
  5 18  1  0
  5 19  1  0
 10 20  1  0
 10 21  1  0
 11 22  1  0
 11 23  1  0
 12 24  1  0
 12 25  1  0
 13 26  1  0
 13 27  1  0
 14 28  1  0
 14 29  1  0
M  END
$$$$
