
     RDKit          3D

 29 30  0  0  0  0  0  0  0  0999 V2000
   -3.4983   -2.1299   -0.0296 N   0  0  0  0  0  0  0  0  0  0  0  0
   -2.7567   -0.9498    0.0065 C   0  0  0  0  0  0  0  0  0  0  0  0
   -3.3675    0.2632   -0.1816 C   0  0  0  0  0  0  0  0  0  0  0  0
   -2.5589    1.3654   -0.0782 C   0  0  0  0  0  0  0  0  0  0  0  0
   -3.0865    2.6456   -0.2196 N   0  0  0  0  0  0  0  0  0  0  0  0
   -1.2512    1.2813    0.1759 N   0  0  0  0  0  0  0  0  0  0  0  0
   -0.7152    0.0574    0.3285 C   0  0  0  0  0  0  0  0  0  0  0  0
   -1.4516   -1.0658    0.2687 N   0  0  0  0  0  0  0  0  0  0  0  0
    0.6470   -0.0347    0.5678 N   0  0  0  0  0  0  0  0  0  0  0  0
    1.4295    1.1668    0.2836 C   0  0  0  0  0  0  0  0  0  0  0  0
    2.9201    0.8844    0.4271 C   0  0  0  0  0  0  0  0  0  0  0  0
    3.3616   -0.2392   -0.5107 C   0  0  0  0  0  0  0  0  0  0  0  0
    2.3133   -1.3474   -0.6533 C   0  0  0  0  0  0  0  0  0  0  0  0
    1.2979   -1.3346    0.4840 C   0  0  0  0  0  0  0  0  0  0  0  0
   -4.0450   -2.2042   -0.8767 H   0  0  0  0  0  0  0  0  0  0  0  0
   -2.8546   -2.9098    0.0859 H   0  0  0  0  0  0  0  0  0  0  0  0
   -4.4277    0.3430   -0.3568 H   0  0  0  0  0  0  0  0  0  0  0  0
   -3.5642    2.7610   -1.1036 H   0  0  0  0  0  0  0  0  0  0  0  0
   -2.3181    3.3075   -0.1092 H   0  0  0  0  0  0  0  0  0  0  0  0
    1.1610    1.9643    0.9896 H   0  0  0  0  0  0  0  0  0  0  0  0
    1.2368    1.5321   -0.7334 H   0  0  0  0  0  0  0  0  0  0  0  0
    3.1376    0.5927    1.4640 H   0  0  0  0  0  0  0  0  0  0  0  0
    3.5035    1.7880    0.2166 H   0  0  0  0  0  0  0  0  0  0  0  0
    3.5750    0.1703   -1.5092 H   0  0  0  0  0  0  0  0  0  0  0  0
    4.3045   -0.6601   -0.1369 H   0  0  0  0  0  0  0  0  0  0  0  0
    1.7805   -1.2167   -1.6104 H   0  0  0  0  0  0  0  0  0  0  0  0
    2.8101   -2.3249   -0.7034 H   0  0  0  0  0  0  0  0  0  0  0  0
    1.8103   -1.5354    1.4333 H   0  0  0  0  0  0  0  0  0  0  0  0
    0.6066   -2.1706    0.3395 H   0  0  0  0  0  0  0  0  0  0  0  0
  1  2  1  0
  2  3  2  0
  3  4  1  0
  4  5  1  0
  4  6  2  0
  6  7  1  0
  7  8  2  0
  7  9  1  0
  9 10  1  0
 10 11  1  0
 11 12  1  0
 12 13  1  0
 13 14  1  0
  8  2  1  0
 14  9  1  0
  1 15  1  0
  1 16  1  0
  3 17  1  0
  5 18  1  0
  5 19  1  0
 10 20  1  0
 10 21  1  0
 11 22  1  0
 11 23  1  0
 12 24  1  0
 12 25  1  0
 13 26  1  0
 13 27  1  0
 14 28  1  0
 14 29  1  0
M  END
$$$$
