
     RDKit          3D

 29 30  0  0  0  0  0  0  0  0999 V2000
   -2.9298    2.7259   -1.0267 N   0  0  0  0  0  0  0  0  0  0  0  0
   -2.4655    1.4825   -0.5728 C   0  0  0  0  0  0  0  0  0  0  0  0
   -3.3489    0.4557   -0.3481 C   0  0  0  0  0  0  0  0  0  0  0  0
   -2.8024   -0.7240    0.0883 C   0  0  0  0  0  0  0  0  0  0  0  0
   -3.6145   -1.8348    0.3295 N   0  0  0  0  0  0  0  0  0  0  0  0
   -1.4917   -0.8905    0.2730 N   0  0  0  0  0  0  0  0  0  0  0  0
   -0.6848    0.1565    0.0328 C   0  0  0  0  0  0  0  0  0  0  0  0
   -1.1520    1.3450   -0.3800 N   0  0  0  0  0  0  0  0  0  0  0  0
    0.6729    0.0092    0.2384 N   0  0  0  0  0  0  0  0  0  0  0  0
    1.5785    1.0204   -0.2927 C   0  0  0  0  0  0  0  0  0  0  0  0
    2.8515    0.3690   -0.8316 C   0  0  0  0  0  0  0  0  0  0  0  0
    3.5591   -0.4872    0.2166 C   0  0  0  0  0  0  0  0  0  0  0  0
    2.5947   -1.1351    1.2090 C   0  0  0  0  0  0  0  0  0  0  0  0
    1.1872   -1.2913    0.6369 C   0  0  0  0  0  0  0  0  0  0  0  0
   -3.5959    3.1085   -0.3631 H   0  0  0  0  0  0  0  0  0  0  0  0
   -3.4006    2.6088   -1.9190 H   0  0  0  0  0  0  0  0  0  0  0  0
   -4.4106    0.5593   -0.5148 H   0  0  0  0  0  0  0  0  0  0  0  0
   -4.3520   -1.6228    0.9915 H   0  0  0  0  0  0  0  0  0  0  0  0
   -3.0059   -2.5745    0.6738 H   0  0  0  0  0  0  0  0  0  0  0  0
    1.1343    1.5936   -1.1155 H   0  0  0  0  0  0  0  0  0  0  0  0
    1.8295    1.7313    0.5035 H   0  0  0  0  0  0  0  0  0  0  0  0
    2.5896   -0.2663   -1.6881 H   0  0  0  0  0  0  0  0  0  0  0  0
    3.5386    1.1340   -1.2107 H   0  0  0  0  0  0  0  0  0  0  0  0
    4.2812    0.1236    0.7719 H   0  0  0  0  0  0  0  0  0  0  0  0
    4.1436   -1.2612   -0.2952 H   0  0  0  0  0  0  0  0  0  0  0  0
    2.9867   -2.1077    1.5274 H   0  0  0  0  0  0  0  0  0  0  0  0
    2.5441   -0.5095    2.1101 H   0  0  0  0  0  0  0  0  0  0  0  0
    0.5622   -1.7454    1.4157 H   0  0  0  0  0  0  0  0  0  0  0  0
    1.2010   -1.9733   -0.2223 H   0  0  0  0  0  0  0  0  0  0  0  0
  1  2  1  0
  2  3  2  0
  3  4  1  0
  4  5  1  0
  4  6  2  0
  6  7  1  0
  7  8  2  0
  7  9  1  0
  9 10  1  0
 10 11  1  0
 11 12  1  0
 12 13  1  0
 13 14  1  0
  8  2  1  0
 14  9  1  0
  1 15  1  0
  1 16  1  0
  3 17  1  0
  5 18  1  0
  5 19  1  0
 10 20  1  0
 10 21  1  0
 11 22  1  0
 11 23  1  0
 12 24  1  0
 12 25  1  0
 13 26  1  0
 13 27  1  0
 14 28  1  0
 14 29  1  0
M  END
$$$$
