
     RDKit          3D

 29 30  0  0  0  0  0  0  0  0999 V2000
    3.0483    2.6176    0.7920 N   0  0  0  0  0  0  0  0  0  0  0  0
    2.5235    1.3951    0.3478 C   0  0  0  0  0  0  0  0  0  0  0  0
    3.3630    0.3524    0.0441 C   0  0  0  0  0  0  0  0  0  0  0  0
    2.7578   -0.8029   -0.3787 C   0  0  0  0  0  0  0  0  0  0  0  0
    3.5214   -1.9291   -0.6945 N   0  0  0  0  0  0  0  0  0  0  0  0
    1.4338   -0.9320   -0.4790 N   0  0  0  0  0  0  0  0  0  0  0  0
    0.6693    0.1295   -0.1705 C   0  0  0  0  0  0  0  0  0  0  0  0
    1.1971    1.2957    0.2354 N   0  0  0  0  0  0  0  0  0  0  0  0
   -0.7252    0.0219   -0.3092 N   0  0  0  0  0  0  0  0  0  0  0  0
   -1.2141   -1.3506   -0.1583 C   0  0  0  0  0  0  0  0  0  0  0  0
   -2.7042   -1.4258   -0.4926 C   0  0  0  0  0  0  0  0  0  0  0  0
   -3.5086   -0.4109    0.3105 C   0  0  0  0  0  0  0  0  0  0  0  0
   -2.9496    0.9902    0.0943 C   0  0  0  0  0  0  0  0  0  0  0  0
   -1.4588    1.0555    0.4275 C   0  0  0  0  0  0  0  0  0  0  0  0
    3.6658    3.0039    0.0847 H   0  0  0  0  0  0  0  0  0  0  0  0
    3.5881    2.4712    1.6396 H   0  0  0  0  0  0  0  0  0  0  0  0
    4.4358    0.4258    0.1417 H   0  0  0  0  0  0  0  0  0  0  0  0
    2.8716   -2.6433   -1.0171 H   0  0  0  0  0  0  0  0  0  0  0  0
    4.2204   -1.7212   -1.3985 H   0  0  0  0  0  0  0  0  0  0  0  0
   -1.0490   -1.7018    0.8689 H   0  0  0  0  0  0  0  0  0  0  0  0
   -0.6978   -2.0395   -0.8383 H   0  0  0  0  0  0  0  0  0  0  0  0
   -2.8475   -1.2337   -1.5636 H   0  0  0  0  0  0  0  0  0  0  0  0
   -3.0772   -2.4369   -0.2948 H   0  0  0  0  0  0  0  0  0  0  0  0
   -3.4704   -0.6659    1.3764 H   0  0  0  0  0  0  0  0  0  0  0  0
   -4.5606   -0.4439    0.0064 H   0  0  0  0  0  0  0  0  0  0  0  0
   -3.1023    1.2821   -0.9526 H   0  0  0  0  0  0  0  0  0  0  0  0
   -3.4988    1.7097    0.7119 H   0  0  0  0  0  0  0  0  0  0  0  0
   -1.3180    0.9254    1.5088 H   0  0  0  0  0  0  0  0  0  0  0  0
   -1.1136    2.0615    0.1575 H   0  0  0  0  0  0  0  0  0  0  0  0
  1  2  1  0
  2  3  2  0
  3  4  1  0
  4  5  1  0
  4  6  2  0
  6  7  1  0
  7  8  2  0
  7  9  1  0
  9 10  1  0
 10 11  1  0
 11 12  1  0
 12 13  1  0
 13 14  1  0
  8  2  1  0
 14  9  1  0
  1 15  1  0
  1 16  1  0
  3 17  1  0
  5 18  1  0
  5 19  1  0
 10 20  1  0
 10 21  1  0
 11 22  1  0
 11 23  1  0
 12 24  1  0
 12 25  1  0
 13 26  1  0
 13 27  1  0
 14 28  1  0
 14 29  1  0
M  END
$$$$
