
     RDKit          3D

 29 30  0  0  0  0  0  0  0  0999 V2000
    3.1522   -1.3784    2.2911 N   0  0  0  0  0  0  0  0  0  0  0  0
    2.5809   -0.6499    1.2372 C   0  0  0  0  0  0  0  0  0  0  0  0
    3.3835   -0.0210    0.3178 C   0  0  0  0  0  0  0  0  0  0  0  0
    2.7357    0.6613   -0.6801 C   0  0  0  0  0  0  0  0  0  0  0  0
    3.4620    1.3208   -1.6746 N   0  0  0  0  0  0  0  0  0  0  0  0
    1.4063    0.7090   -0.7798 N   0  0  0  0  0  0  0  0  0  0  0  0
    0.6822    0.0697    0.1541 C   0  0  0  0  0  0  0  0  0  0  0  0
    1.2488   -0.6034    1.1675 N   0  0  0  0  0  0  0  0  0  0  0  0
   -0.6957    0.1253    0.0790 N   0  0  0  0  0  0  0  0  0  0  0  0
   -1.4821   -0.7925    0.8937 C   0  0  0  0  0  0  0  0  0  0  0  0
   -2.7033   -1.2849    0.1181 C   0  0  0  0  0  0  0  0  0  0  0  0
   -3.5744   -0.1382   -0.3904 C   0  0  0  0  0  0  0  0  0  0  0  0
   -2.7726    1.1193   -0.7229 C   0  0  0  0  0  0  0  0  0  0  0  0
   -1.3119    0.8110   -1.0456 C   0  0  0  0  0  0  0  0  0  0  0  0
    3.7446   -0.7712    2.8487 H   0  0  0  0  0  0  0  0  0  0  0  0
    3.7269   -2.1269    1.9158 H   0  0  0  0  0  0  0  0  0  0  0  0
    4.4613   -0.0667    0.3637 H   0  0  0  0  0  0  0  0  0  0  0  0
    4.1179    1.9855   -1.2809 H   0  0  0  0  0  0  0  0  0  0  0  0
    2.7834    1.7799   -2.2785 H   0  0  0  0  0  0  0  0  0  0  0  0
   -1.8013   -0.2777    1.8078 H   0  0  0  0  0  0  0  0  0  0  0  0
   -0.9127   -1.6788    1.1989 H   0  0  0  0  0  0  0  0  0  0  0  0
   -3.3030   -1.9580    0.7412 H   0  0  0  0  0  0  0  0  0  0  0  0
   -2.3623   -1.8773   -0.7413 H   0  0  0  0  0  0  0  0  0  0  0  0
   -4.1220   -0.4772   -1.2781 H   0  0  0  0  0  0  0  0  0  0  0  0
   -4.3342    0.1142    0.3592 H   0  0  0  0  0  0  0  0  0  0  0  0
   -3.2434    1.6504   -1.5578 H   0  0  0  0  0  0  0  0  0  0  0  0
   -2.8099    1.7985    0.1391 H   0  0  0  0  0  0  0  0  0  0  0  0
   -0.8110    1.7645   -1.2539 H   0  0  0  0  0  0  0  0  0  0  0  0
   -1.2459    0.1927   -1.9493 H   0  0  0  0  0  0  0  0  0  0  0  0
  1  2  1  0
  2  3  2  0
  3  4  1  0
  4  5  1  0
  4  6  2  0
  6  7  1  0
  7  8  2  0
  7  9  1  0
  9 10  1  0
 10 11  1  0
 11 12  1  0
 12 13  1  0
 13 14  1  0
  8  2  1  0
 14  9  1  0
  1 15  1  0
  1 16  1  0
  3 17  1  0
  5 18  1  0
  5 19  1  0
 10 20  1  0
 10 21  1  0
 11 22  1  0
 11 23  1  0
 12 24  1  0
 12 25  1  0
 13 26  1  0
 13 27  1  0
 14 28  1  0
 14 29  1  0
M  END
$$$$
