
     RDKit          3D

 29 30  0  0  0  0  0  0  0  0999 V2000
   -2.7884    1.6556    2.5631 N   0  0  0  0  0  0  0  0  0  0  0  0
   -2.3803    0.8386    1.4984 C   0  0  0  0  0  0  0  0  0  0  0  0
   -3.3140    0.1895    0.7290 C   0  0  0  0  0  0  0  0  0  0  0  0
   -2.8214   -0.5815   -0.2927 C   0  0  0  0  0  0  0  0  0  0  0  0
   -3.6899   -1.2691   -1.1438 N   0  0  0  0  0  0  0  0  0  0  0  0
   -1.5175   -0.6937   -0.5516 N   0  0  0  0  0  0  0  0  0  0  0  0
   -0.6596   -0.0299    0.2411 C   0  0  0  0  0  0  0  0  0  0  0  0
   -1.0700    0.7293    1.2688 N   0  0  0  0  0  0  0  0  0  0  0  0
    0.6951   -0.1506    0.0012 N   0  0  0  0  0  0  0  0  0  0  0  0
    1.1405   -0.9315   -1.1419 C   0  0  0  0  0  0  0  0  0  0  0  0
    2.6181   -1.2829   -0.9811 C   0  0  0  0  0  0  0  0  0  0  0  0
    3.4999   -0.0436   -0.8350 C   0  0  0  0  0  0  0  0  0  0  0  0
    2.7411    1.1697   -0.3016 C   0  0  0  0  0  0  0  0  0  0  0  0
    1.6099    0.7808    0.6495 C   0  0  0  0  0  0  0  0  0  0  0  0
   -3.3274    1.1110    3.2288 H   0  0  0  0  0  0  0  0  0  0  0  0
   -3.3784    2.4038    2.2117 H   0  0  0  0  0  0  0  0  0  0  0  0
   -4.3751    0.2853    0.9038 H   0  0  0  0  0  0  0  0  0  0  0  0
   -3.1093   -1.7943   -1.7943 H   0  0  0  0  0  0  0  0  0  0  0  0
   -4.3146   -1.8785   -0.6287 H   0  0  0  0  0  0  0  0  0  0  0  0
    0.9837   -0.3683   -2.0702 H   0  0  0  0  0  0  0  0  0  0  0  0
    0.5834   -1.8731   -1.2225 H   0  0  0  0  0  0  0  0  0  0  0  0
    2.7388   -1.9081   -0.0865 H   0  0  0  0  0  0  0  0  0  0  0  0
    2.9611   -1.8852   -1.8300 H   0  0  0  0  0  0  0  0  0  0  0  0
    4.3381   -0.2820   -0.1692 H   0  0  0  0  0  0  0  0  0  0  0  0
    3.9435    0.2150   -1.8040 H   0  0  0  0  0  0  0  0  0  0  0  0
    2.3164    1.7218   -1.1505 H   0  0  0  0  0  0  0  0  0  0  0  0
    3.4380    1.8533    0.1963 H   0  0  0  0  0  0  0  0  0  0  0  0
    1.1156    1.7085    0.9619 H   0  0  0  0  0  0  0  0  0  0  0  0
    2.0227    0.3104    1.5499 H   0  0  0  0  0  0  0  0  0  0  0  0
  1  2  1  0
  2  3  2  0
  3  4  1  0
  4  5  1  0
  4  6  2  0
  6  7  1  0
  7  8  2  0
  7  9  1  0
  9 10  1  0
 10 11  1  0
 11 12  1  0
 12 13  1  0
 13 14  1  0
  8  2  1  0
 14  9  1  0
  1 15  1  0
  1 16  1  0
  3 17  1  0
  5 18  1  0
  5 19  1  0
 10 20  1  0
 10 21  1  0
 11 22  1  0
 11 23  1  0
 12 24  1  0
 12 25  1  0
 13 26  1  0
 13 27  1  0
 14 28  1  0
 14 29  1  0
M  END
$$$$
