
     RDKit          3D

 29 30  0  0  0  0  0  0  0  0999 V2000
    3.3500    1.7776   -1.4988 N   0  0  0  0  0  0  0  0  0  0  0  0
    2.6829    0.8654   -0.6785 C   0  0  0  0  0  0  0  0  0  0  0  0
    3.3864   -0.0593    0.0495 C   0  0  0  0  0  0  0  0  0  0  0  0
    2.6399   -0.8999    0.8371 C   0  0  0  0  0  0  0  0  0  0  0  0
    3.2705   -1.8699    1.6299 N   0  0  0  0  0  0  0  0  0  0  0  0
    1.3093   -0.8168    0.9031 N   0  0  0  0  0  0  0  0  0  0  0  0
    0.6839    0.1219    0.1745 C   0  0  0  0  0  0  0  0  0  0  0  0
    1.3538    0.9704   -0.6243 N   0  0  0  0  0  0  0  0  0  0  0  0
   -0.7130    0.2379    0.2667 N   0  0  0  0  0  0  0  0  0  0  0  0
   -1.3265    0.8469   -0.9147 C   0  0  0  0  0  0  0  0  0  0  0  0
   -2.8119    1.1123   -0.6688 C   0  0  0  0  0  0  0  0  0  0  0  0
   -3.5330   -0.1443   -0.1967 C   0  0  0  0  0  0  0  0  0  0  0  0
   -2.8471   -0.7073    1.0421 C   0  0  0  0  0  0  0  0  0  0  0  0
   -1.3616   -0.9674    0.7906 C   0  0  0  0  0  0  0  0  0  0  0  0
    2.6373    2.3420   -1.9563 H   0  0  0  0  0  0  0  0  0  0  0  0
    3.9497    1.3141   -2.1711 H   0  0  0  0  0  0  0  0  0  0  0  0
    4.4643   -0.1085    0.0102 H   0  0  0  0  0  0  0  0  0  0  0  0
    3.8461   -2.4734    1.0517 H   0  0  0  0  0  0  0  0  0  0  0  0
    3.8716   -1.4117    2.3088 H   0  0  0  0  0  0  0  0  0  0  0  0
   -1.2094    0.1878   -1.7851 H   0  0  0  0  0  0  0  0  0  0  0  0
   -0.8640    1.8119   -1.1569 H   0  0  0  0  0  0  0  0  0  0  0  0
   -2.9210    1.8976    0.0900 H   0  0  0  0  0  0  0  0  0  0  0  0
   -3.2780    1.4862   -1.5873 H   0  0  0  0  0  0  0  0  0  0  0  0
   -3.5329   -0.8956   -0.9956 H   0  0  0  0  0  0  0  0  0  0  0  0
   -4.5792    0.0888    0.0298 H   0  0  0  0  0  0  0  0  0  0  0  0
   -2.9573    0.0042    1.8704 H   0  0  0  0  0  0  0  0  0  0  0  0
   -3.3385   -1.6371    1.3498 H   0  0  0  0  0  0  0  0  0  0  0  0
   -1.2487   -1.7983    0.0817 H   0  0  0  0  0  0  0  0  0  0  0  0
   -0.9236   -1.2754    1.7483 H   0  0  0  0  0  0  0  0  0  0  0  0
  1  2  1  0
  2  3  2  0
  3  4  1  0
  4  5  1  0
  4  6  2  0
  6  7  1  0
  7  8  2  0
  7  9  1  0
  9 10  1  0
 10 11  1  0
 11 12  1  0
 12 13  1  0
 13 14  1  0
  8  2  1  0
 14  9  1  0
  1 15  1  0
  1 16  1  0
  3 17  1  0
  5 18  1  0
  5 19  1  0
 10 20  1  0
 10 21  1  0
 11 22  1  0
 11 23  1  0
 12 24  1  0
 12 25  1  0
 13 26  1  0
 13 27  1  0
 14 28  1  0
 14 29  1  0
M  END
$$$$
