
     RDKit          3D

 29 30  0  0  0  0  0  0  0  0999 V2000
   -3.3200    1.8096    1.6220 N   0  0  0  0  0  0  0  0  0  0  0  0
   -2.6924    0.8863    0.7832 C   0  0  0  0  0  0  0  0  0  0  0  0
   -3.4292   -0.0407    0.0945 C   0  0  0  0  0  0  0  0  0  0  0  0
   -2.7175   -0.8819   -0.7195 C   0  0  0  0  0  0  0  0  0  0  0  0
   -3.3667   -1.8781   -1.4524 N   0  0  0  0  0  0  0  0  0  0  0  0
   -1.3880   -0.8270   -0.8317 N   0  0  0  0  0  0  0  0  0  0  0  0
   -0.7304    0.1160   -0.1355 C   0  0  0  0  0  0  0  0  0  0  0  0
   -1.3652    0.9845    0.6705 N   0  0  0  0  0  0  0  0  0  0  0  0
    0.6640    0.2136   -0.2774 N   0  0  0  0  0  0  0  0  0  0  0  0
    1.2919   -1.0385   -0.7076 C   0  0  0  0  0  0  0  0  0  0  0  0
    2.7709   -0.8136   -1.0231 C   0  0  0  0  0  0  0  0  0  0  0  0
    3.4952   -0.1475    0.1403 C   0  0  0  0  0  0  0  0  0  0  0  0
    2.7937    1.1512    0.5189 C   0  0  0  0  0  0  0  0  0  0  0  0
    1.3149    0.9186    0.8295 C   0  0  0  0  0  0  0  0  0  0  0  0
   -2.5881    2.3686    2.0540 H   0  0  0  0  0  0  0  0  0  0  0  0
   -3.9037    1.3526    2.3131 H   0  0  0  0  0  0  0  0  0  0  0  0
   -4.5033   -0.1023    0.1848 H   0  0  0  0  0  0  0  0  0  0  0  0
   -4.1055   -1.4912   -2.0292 H   0  0  0  0  0  0  0  0  0  0  0  0
   -2.6573   -2.3414   -2.0157 H   0  0  0  0  0  0  0  0  0  0  0  0
    0.8260   -1.4300   -1.6205 H   0  0  0  0  0  0  0  0  0  0  0  0
    1.1944   -1.8009    0.0766 H   0  0  0  0  0  0  0  0  0  0  0  0
    3.2485   -1.7710   -1.2599 H   0  0  0  0  0  0  0  0  0  0  0  0
    2.8610   -0.1799   -1.9146 H   0  0  0  0  0  0  0  0  0  0  0  0
    4.5354    0.0572   -0.1358 H   0  0  0  0  0  0  0  0  0  0  0  0
    3.5150   -0.8246    1.0027 H   0  0  0  0  0  0  0  0  0  0  0  0
    2.8843    1.8652   -0.3095 H   0  0  0  0  0  0  0  0  0  0  0  0
    3.2877    1.6018    1.3870 H   0  0  0  0  0  0  0  0  0  0  0  0
    1.2204    0.3388    1.7572 H   0  0  0  0  0  0  0  0  0  0  0  0
    0.8639    1.9045    0.9982 H   0  0  0  0  0  0  0  0  0  0  0  0
  1  2  1  0
  2  3  2  0
  3  4  1  0
  4  5  1  0
  4  6  2  0
  6  7  1  0
  7  8  2  0
  7  9  1  0
  9 10  1  0
 10 11  1  0
 11 12  1  0
 12 13  1  0
 13 14  1  0
  8  2  1  0
 14  9  1  0
  1 15  1  0
  1 16  1  0
  3 17  1  0
  5 18  1  0
  5 19  1  0
 10 20  1  0
 10 21  1  0
 11 22  1  0
 11 23  1  0
 12 24  1  0
 12 25  1  0
 13 26  1  0
 13 27  1  0
 14 28  1  0
 14 29  1  0
M  END
$$$$
