
     RDKit          3D

 29 30  0  0  0  0  0  0  0  0999 V2000
   -3.5647    1.7051    1.1648 N   0  0  0  0  0  0  0  0  0  0  0  0
   -2.8066    0.7748    0.4499 C   0  0  0  0  0  0  0  0  0  0  0  0
   -3.3947   -0.0230   -0.4957 C   0  0  0  0  0  0  0  0  0  0  0  0
   -2.5567   -0.8854   -1.1520 C   0  0  0  0  0  0  0  0  0  0  0  0
   -3.0560   -1.7619   -2.1176 N   0  0  0  0  0  0  0  0  0  0  0  0
   -1.2494   -0.9640   -0.8901 N   0  0  0  0  0  0  0  0  0  0  0  0
   -0.7376   -0.1399    0.0404 C   0  0  0  0  0  0  0  0  0  0  0  0
   -1.4982    0.7396    0.7145 N   0  0  0  0  0  0  0  0  0  0  0  0
    0.6330   -0.2184    0.3392 N   0  0  0  0  0  0  0  0  0  0  0  0
    1.4280   -0.8326   -0.7269 C   0  0  0  0  0  0  0  0  0  0  0  0
    2.8666   -1.0556   -0.2599 C   0  0  0  0  0  0  0  0  0  0  0  0
    3.4821    0.2281    0.2832 C   0  0  0  0  0  0  0  0  0  0  0  0
    2.6089    0.7981    1.3942 C   0  0  0  0  0  0  0  0  0  0  0  0
    1.1708    1.0138    0.9217 C   0  0  0  0  0  0  0  0  0  0  0  0
   -2.9391    2.1431    1.8371 H   0  0  0  0  0  0  0  0  0  0  0  0
   -4.3543    1.2646    1.6238 H   0  0  0  0  0  0  0  0  0  0  0  0
   -4.4523    0.0226   -0.7079 H   0  0  0  0  0  0  0  0  0  0  0  0
   -2.2633   -2.2748   -2.4960 H   0  0  0  0  0  0  0  0  0  0  0  0
   -3.5680   -1.2706   -2.8414 H   0  0  0  0  0  0  0  0  0  0  0  0
    1.0278   -1.8136   -1.0120 H   0  0  0  0  0  0  0  0  0  0  0  0
    1.4258   -0.1927   -1.6193 H   0  0  0  0  0  0  0  0  0  0  0  0
    3.4708   -1.4356   -1.0912 H   0  0  0  0  0  0  0  0  0  0  0  0
    2.8803   -1.8227    0.5249 H   0  0  0  0  0  0  0  0  0  0  0  0
    4.4886    0.0264    0.6662 H   0  0  0  0  0  0  0  0  0  0  0  0
    3.5831    0.9629   -0.5246 H   0  0  0  0  0  0  0  0  0  0  0  0
    2.6125    0.1069    2.2466 H   0  0  0  0  0  0  0  0  0  0  0  0
    3.0283    1.7466    1.7479 H   0  0  0  0  0  0  0  0  0  0  0  0
    1.1437    1.8259    0.1832 H   0  0  0  0  0  0  0  0  0  0  0  0
    0.5909    1.3323    1.7969 H   0  0  0  0  0  0  0  0  0  0  0  0
  1  2  1  0
  2  3  2  0
  3  4  1  0
  4  5  1  0
  4  6  2  0
  6  7  1  0
  7  8  2  0
  7  9  1  0
  9 10  1  0
 10 11  1  0
 11 12  1  0
 12 13  1  0
 13 14  1  0
  8  2  1  0
 14  9  1  0
  1 15  1  0
  1 16  1  0
  3 17  1  0
  5 18  1  0
  5 19  1  0
 10 20  1  0
 10 21  1  0
 11 22  1  0
 11 23  1  0
 12 24  1  0
 12 25  1  0
 13 26  1  0
 13 27  1  0
 14 28  1  0
 14 29  1  0
M  END
$$$$
