
     RDKit          3D

 29 30  0  0  0  0  0  0  0  0999 V2000
    3.1912   -2.5255   -0.3699 N   0  0  0  0  0  0  0  0  0  0  0  0
    2.6027   -1.2701   -0.1568 C   0  0  0  0  0  0  0  0  0  0  0  0
    3.3855   -0.1450   -0.0769 C   0  0  0  0  0  0  0  0  0  0  0  0
    2.7213    1.0374    0.1275 C   0  0  0  0  0  0  0  0  0  0  0  0
    3.4252    2.2414    0.2073 N   0  0  0  0  0  0  0  0  0  0  0  0
    1.3932    1.1142    0.2270 N   0  0  0  0  0  0  0  0  0  0  0  0
    0.6889   -0.0261    0.1378 C   0  0  0  0  0  0  0  0  0  0  0  0
    1.2736   -1.2207   -0.0442 N   0  0  0  0  0  0  0  0  0  0  0  0
   -0.6872    0.0294    0.2641 N   0  0  0  0  0  0  0  0  0  0  0  0
   -1.3604    1.3076    0.0714 C   0  0  0  0  0  0  0  0  0  0  0  0
   -2.6209    1.1292   -0.7739 C   0  0  0  0  0  0  0  0  0  0  0  0
   -3.5841    0.1056   -0.1760 C   0  0  0  0  0  0  0  0  0  0  0  0
   -2.8709   -1.0102    0.5865 C   0  0  0  0  0  0  0  0  0  0  0  0
   -1.4341   -1.2119    0.1095 C   0  0  0  0  0  0  0  0  0  0  0  0
    3.6988   -2.5188   -1.2496 H   0  0  0  0  0  0  0  0  0  0  0  0
    3.8495   -2.7288    0.3756 H   0  0  0  0  0  0  0  0  0  0  0  0
    4.4598   -0.1792   -0.1797 H   0  0  0  0  0  0  0  0  0  0  0  0
    2.7393    2.9696    0.3957 H   0  0  0  0  0  0  0  0  0  0  0  0
    4.1389    2.2103    0.9262 H   0  0  0  0  0  0  0  0  0  0  0  0
   -1.6239    1.7226    1.0516 H   0  0  0  0  0  0  0  0  0  0  0  0
   -0.7294    2.0479   -0.4348 H   0  0  0  0  0  0  0  0  0  0  0  0
   -3.1328    2.0900   -0.9000 H   0  0  0  0  0  0  0  0  0  0  0  0
   -2.3302    0.7967   -1.7792 H   0  0  0  0  0  0  0  0  0  0  0  0
   -4.2864    0.6052    0.5022 H   0  0  0  0  0  0  0  0  0  0  0  0
   -4.1908   -0.3224   -0.9832 H   0  0  0  0  0  0  0  0  0  0  0  0
   -3.4376   -1.9438    0.4953 H   0  0  0  0  0  0  0  0  0  0  0  0
   -2.8588   -0.7556    1.6545 H   0  0  0  0  0  0  0  0  0  0  0  0
   -1.4275   -1.5342   -0.9394 H   0  0  0  0  0  0  0  0  0  0  0  0
   -0.9930   -2.0151    0.7128 H   0  0  0  0  0  0  0  0  0  0  0  0
  1  2  1  0
  2  3  2  0
  3  4  1  0
  4  5  1  0
  4  6  2  0
  6  7  1  0
  7  8  2  0
  7  9  1  0
  9 10  1  0
 10 11  1  0
 11 12  1  0
 12 13  1  0
 13 14  1  0
  8  2  1  0
 14  9  1  0
  1 15  1  0
  1 16  1  0
  3 17  1  0
  5 18  1  0
  5 19  1  0
 10 20  1  0
 10 21  1  0
 11 22  1  0
 11 23  1  0
 12 24  1  0
 12 25  1  0
 13 26  1  0
 13 27  1  0
 14 28  1  0
 14 29  1  0
M  END
$$$$
