
     RDKit          3D

 29 30  0  0  0  0  0  0  0  0999 V2000
   -3.2181   -2.4402    0.9485 N   0  0  0  0  0  0  0  0  0  0  0  0
   -2.6320   -1.1950    0.7128 C   0  0  0  0  0  0  0  0  0  0  0  0
   -3.3545   -0.0421    0.8735 C   0  0  0  0  0  0  0  0  0  0  0  0
   -2.6783    1.1240    0.6289 C   0  0  0  0  0  0  0  0  0  0  0  0
   -3.3139    2.3587    0.7750 N   0  0  0  0  0  0  0  0  0  0  0  0
   -1.3895    1.1533    0.2801 N   0  0  0  0  0  0  0  0  0  0  0  0
   -0.7371   -0.0157    0.1605 C   0  0  0  0  0  0  0  0  0  0  0  0
   -1.3426   -1.1980    0.3651 N   0  0  0  0  0  0  0  0  0  0  0  0
    0.6138   -0.0028   -0.2284 N   0  0  0  0  0  0  0  0  0  0  0  0
    1.3356   -1.2191    0.1567 C   0  0  0  0  0  0  0  0  0  0  0  0
    2.7414   -1.2182   -0.4445 C   0  0  0  0  0  0  0  0  0  0  0  0
    3.4958    0.0594   -0.0977 C   0  0  0  0  0  0  0  0  0  0  0  0
    2.6916    1.2776   -0.5348 C   0  0  0  0  0  0  0  0  0  0  0  0
    1.2860    1.2659    0.0669 C   0  0  0  0  0  0  0  0  0  0  0  0
   -4.0649   -2.5663    0.4063 H   0  0  0  0  0  0  0  0  0  0  0  0
   -2.5198   -3.1459    0.7264 H   0  0  0  0  0  0  0  0  0  0  0  0
   -4.3866   -0.0512    1.1906 H   0  0  0  0  0  0  0  0  0  0  0  0
   -4.1642    2.4115    0.2263 H   0  0  0  0  0  0  0  0  0  0  0  0
   -2.6439    3.0737    0.5015 H   0  0  0  0  0  0  0  0  0  0  0  0
    0.8299   -2.1201   -0.2124 H   0  0  0  0  0  0  0  0  0  0  0  0
    1.4030   -1.2914    1.2504 H   0  0  0  0  0  0  0  0  0  0  0  0
    2.6711   -1.3110   -1.5358 H   0  0  0  0  0  0  0  0  0  0  0  0
    3.2989   -2.0896   -0.0832 H   0  0  0  0  0  0  0  0  0  0  0  0
    4.4737    0.0611   -0.5916 H   0  0  0  0  0  0  0  0  0  0  0  0
    3.6775    0.1021    0.9830 H   0  0  0  0  0  0  0  0  0  0  0  0
    3.2134    2.1943   -0.2381 H   0  0  0  0  0  0  0  0  0  0  0  0
    2.6192    1.2885   -1.6298 H   0  0  0  0  0  0  0  0  0  0  0  0
    0.7454    2.1171   -0.3656 H   0  0  0  0  0  0  0  0  0  0  0  0
    1.3490    1.4196    1.1524 H   0  0  0  0  0  0  0  0  0  0  0  0
  1  2  1  0
  2  3  2  0
  3  4  1  0
  4  5  1  0
  4  6  2  0
  6  7  1  0
  7  8  2  0
  7  9  1  0
  9 10  1  0
 10 11  1  0
 11 12  1  0
 12 13  1  0
 13 14  1  0
  8  2  1  0
 14  9  1  0
  1 15  1  0
  1 16  1  0
  3 17  1  0
  5 18  1  0
  5 19  1  0
 10 20  1  0
 10 21  1  0
 11 22  1  0
 11 23  1  0
 12 24  1  0
 12 25  1  0
 13 26  1  0
 13 27  1  0
 14 28  1  0
 14 29  1  0
M  END
$$$$
