
     RDKit          3D

 29 30  0  0  0  0  0  0  0  0999 V2000
    3.2227    2.3941    0.6456 N   0  0  0  0  0  0  0  0  0  0  0  0
    2.6280    1.1721    0.3226 C   0  0  0  0  0  0  0  0  0  0  0  0
    3.3941    0.0454    0.1657 C   0  0  0  0  0  0  0  0  0  0  0  0
    2.7141   -1.1090   -0.1340 C   0  0  0  0  0  0  0  0  0  0  0  0
    3.4114   -2.3139   -0.3068 N   0  0  0  0  0  0  0  0  0  0  0  0
    1.3861   -1.1380   -0.2652 N   0  0  0  0  0  0  0  0  0  0  0  0
    0.6981   -0.0004   -0.0819 C   0  0  0  0  0  0  0  0  0  0  0  0
    1.2985    1.1650    0.2121 N   0  0  0  0  0  0  0  0  0  0  0  0
   -0.6758   -0.0230   -0.2206 N   0  0  0  0  0  0  0  0  0  0  0  0
   -1.4281    1.1967    0.0270 C   0  0  0  0  0  0  0  0  0  0  0  0
   -2.8247    1.0720   -0.5787 C   0  0  0  0  0  0  0  0  0  0  0  0
   -3.5961   -0.1248   -0.0244 C   0  0  0  0  0  0  0  0  0  0  0  0
   -2.6845   -1.2256    0.5138 C   0  0  0  0  0  0  0  0  0  0  0  0
   -1.3594   -1.3101   -0.2428 C   0  0  0  0  0  0  0  0  0  0  0  0
    3.9385    2.6509   -0.0242 H   0  0  0  0  0  0  0  0  0  0  0  0
    2.4760    3.0852    0.6764 H   0  0  0  0  0  0  0  0  0  0  0  0
    4.4670    0.0704    0.2849 H   0  0  0  0  0  0  0  0  0  0  0  0
    4.0857   -2.2172   -1.0593 H   0  0  0  0  0  0  0  0  0  0  0  0
    3.9152   -2.5412    0.5452 H   0  0  0  0  0  0  0  0  0  0  0  0
   -1.4982    1.3869    1.1051 H   0  0  0  0  0  0  0  0  0  0  0  0
   -0.9431    2.0649   -0.4361 H   0  0  0  0  0  0  0  0  0  0  0  0
   -2.7307    0.9567   -1.6667 H   0  0  0  0  0  0  0  0  0  0  0  0
   -3.3959    1.9922   -0.4117 H   0  0  0  0  0  0  0  0  0  0  0  0
   -4.2409   -0.5274   -0.8149 H   0  0  0  0  0  0  0  0  0  0  0  0
   -4.2666    0.2031    0.7791 H   0  0  0  0  0  0  0  0  0  0  0  0
   -2.4758   -1.0248    1.5731 H   0  0  0  0  0  0  0  0  0  0  0  0
   -3.2052   -2.1892    0.4769 H   0  0  0  0  0  0  0  0  0  0  0  0
   -1.5405   -1.6025   -1.2840 H   0  0  0  0  0  0  0  0  0  0  0  0
   -0.7700   -2.1085    0.2239 H   0  0  0  0  0  0  0  0  0  0  0  0
  1  2  1  0
  2  3  2  0
  3  4  1  0
  4  5  1  0
  4  6  2  0
  6  7  1  0
  7  8  2  0
  7  9  1  0
  9 10  1  0
 10 11  1  0
 11 12  1  0
 12 13  1  0
 13 14  1  0
  8  2  1  0
 14  9  1  0
  1 15  1  0
  1 16  1  0
  3 17  1  0
  5 18  1  0
  5 19  1  0
 10 20  1  0
 10 21  1  0
 11 22  1  0
 11 23  1  0
 12 24  1  0
 12 25  1  0
 13 26  1  0
 13 27  1  0
 14 28  1  0
 14 29  1  0
M  END
$$$$
