
     RDKit          3D

 30 30  0  0  0  0  0  0  0  0999 V2000
   -3.4447   -0.6166    1.2916 C   0  0  0  0  0  0  0  0  0  0  0  0
   -3.1956   -0.2027   -0.1579 C   0  0  0  0  0  0  0  0  0  0  0  0
   -4.3219    0.7061   -0.6477 C   0  0  0  0  0  0  0  0  0  0  0  0
   -1.8326    0.4838   -0.2949 C   0  0  0  0  0  0  0  0  0  0  0  0
   -1.7303    1.6755   -0.5622 O   0  0  0  0  0  0  0  0  0  0  0  0
   -0.7764   -0.3914   -0.0880 N   0  0  0  0  0  0  0  0  0  0  0  0
    0.6031   -0.0964   -0.1088 C   0  0  0  0  0  0  0  0  0  0  0  0
    1.4823   -1.1744    0.0789 C   0  0  0  0  0  0  0  0  0  0  0  0
    2.8774   -0.9947    0.0812 C   0  0  0  0  0  0  0  0  0  0  0  0
    3.3938    0.2916   -0.1226 C   0  0  0  0  0  0  0  0  0  0  0  0
    2.5189    1.3713   -0.3060 C   0  0  0  0  0  0  0  0  0  0  0  0
    1.1288    1.1832   -0.2977 C   0  0  0  0  0  0  0  0  0  0  0  0
    3.0709    2.7175   -0.5103 N   0  0  0  0  0  4  0  0  0  0  0  0
    2.2942    3.6794   -0.4530 O   0  0  0  0  0  1  0  0  0  0  0  0
    4.2888    2.8077   -0.7226 O   0  0  0  0  0  0  0  0  0  0  0  0
    3.8031   -2.1743    0.2604 C   0  0  0  0  0  0  0  0  0  0  0  0
    4.9494   -1.8539    0.9188 F   0  0  0  0  0  0  0  0  0  0  0  0
    4.1843   -2.7121   -0.9287 F   0  0  0  0  0  0  0  0  0  0  0  0
    3.2357   -3.1896    0.9685 F   0  0  0  0  0  0  0  0  0  0  0  0
   -4.4277   -1.0868    1.3999 H   0  0  0  0  0  0  0  0  0  0  0  0
   -2.6945   -1.3343    1.6391 H   0  0  0  0  0  0  0  0  0  0  0  0
   -3.4038    0.2497    1.9613 H   0  0  0  0  0  0  0  0  0  0  0  0
   -3.1839   -1.0983   -0.7920 H   0  0  0  0  0  0  0  0  0  0  0  0
   -4.3940    1.6167   -0.0425 H   0  0  0  0  0  0  0  0  0  0  0  0
   -4.1527    1.0104   -1.6864 H   0  0  0  0  0  0  0  0  0  0  0  0
   -5.2868    0.1903   -0.6012 H   0  0  0  0  0  0  0  0  0  0  0  0
   -1.0248   -1.3606    0.0696 H   0  0  0  0  0  0  0  0  0  0  0  0
    1.0867   -2.1797    0.2263 H   0  0  0  0  0  0  0  0  0  0  0  0
    4.4740    0.4415   -0.1323 H   0  0  0  0  0  0  0  0  0  0  0  0
    0.4780    2.0413   -0.4408 H   0  0  0  0  0  0  0  0  0  0  0  0
  1  2  1  0
  2  3  1  0
  2  4  1  0
  4  5  2  0
  4  6  1  0
  6  7  1  0
  7  8  2  0
  8  9  1  0
  9 10  2  0
 10 11  1  0
 11 12  2  0
 11 13  1  0
 13 14  1  0
 13 15  2  0
  9 16  1  0
 16 17  1  0
 16 18  1  0
 16 19  1  0
 12  7  1  0
  1 20  1  0
  1 21  1  0
  1 22  1  0
  2 23  1  0
  3 24  1  0
  3 25  1  0
  3 26  1  0
  6 27  1  0
  8 28  1  0
 10 29  1  0
 12 30  1  0
M  CHG  2  13   1  14  -1
M  END
$$$$
