
     RDKit          3D

 30 30  0  0  0  0  0  0  0  0999 V2000
    3.7090   -0.6502    0.8677 C   0  0  0  0  0  0  0  0  0  0  0  0
    3.1288    0.2641   -0.2057 C   0  0  0  0  0  0  0  0  0  0  0  0
    4.0249    0.2532   -1.4284 C   0  0  0  0  0  0  0  0  0  0  0  0
    1.6967   -0.1079   -0.5609 C   0  0  0  0  0  0  0  0  0  0  0  0
    1.3847   -0.6953   -1.5940 O   0  0  0  0  0  0  0  0  0  0  0  0
    0.7718    0.3037    0.4315 N   0  0  0  0  0  0  0  0  0  0  0  0
   -0.5949    0.0954    0.2178 C   0  0  0  0  0  0  0  0  0  0  0  0
   -1.4544    1.2010    0.2092 C   0  0  0  0  0  0  0  0  0  0  0  0
   -2.8400    1.0252    0.0396 C   0  0  0  0  0  0  0  0  0  0  0  0
   -3.3535   -0.2796   -0.0720 C   0  0  0  0  0  0  0  0  0  0  0  0
   -2.4881   -1.3815   -0.0077 C   0  0  0  0  0  0  0  0  0  0  0  0
   -1.0890   -1.2008    0.0708 C   0  0  0  0  0  0  0  0  0  0  0  0
   -3.0330   -2.7630   -0.0035 N   0  0  0  0  0  4  0  0  0  0  0  0
   -2.2669   -3.7082    0.2805 O   0  0  0  0  0  1  0  0  0  0  0  0
   -4.2546   -2.8882   -0.2139 O   0  0  0  0  0  0  0  0  0  0  0  0
   -3.7421    2.2175   -0.0614 C   0  0  0  0  0  0  0  0  0  0  0  0
   -4.3204    2.4830    1.1490 F   0  0  0  0  0  0  0  0  0  0  0  0
   -3.0924    3.3565   -0.4114 F   0  0  0  0  0  0  0  0  0  0  0  0
   -4.7653    2.0781   -0.9473 F   0  0  0  0  0  0  0  0  0  0  0  0
    3.7120   -1.6975    0.5576 H   0  0  0  0  0  0  0  0  0  0  0  0
    3.1370   -0.5687    1.8015 H   0  0  0  0  0  0  0  0  0  0  0  0
    4.7436   -0.3495    1.0763 H   0  0  0  0  0  0  0  0  0  0  0  0
    3.1252    1.2857    0.1960 H   0  0  0  0  0  0  0  0  0  0  0  0
    3.6107    0.9167   -2.1953 H   0  0  0  0  0  0  0  0  0  0  0  0
    4.1165   -0.7519   -1.8595 H   0  0  0  0  0  0  0  0  0  0  0  0
    5.0195    0.6183   -1.1717 H   0  0  0  0  0  0  0  0  0  0  0  0
    1.0048    1.2136    0.8354 H   0  0  0  0  0  0  0  0  0  0  0  0
   -1.0350    2.2128    0.3180 H   0  0  0  0  0  0  0  0  0  0  0  0
   -4.4453   -0.4284   -0.1095 H   0  0  0  0  0  0  0  0  0  0  0  0
   -0.4107   -2.0540    0.0766 H   0  0  0  0  0  0  0  0  0  0  0  0
  1  2  1  0
  2  3  1  0
  2  4  1  0
  4  5  2  0
  4  6  1  0
  6  7  1  0
  7  8  2  0
  8  9  1  0
  9 10  2  0
 10 11  1  0
 11 12  2  0
 11 13  1  0
 13 14  1  0
 13 15  2  0
  9 16  1  0
 16 17  1  0
 16 18  1  0
 16 19  1  0
 12  7  1  0
  1 20  1  0
  1 21  1  0
  1 22  1  0
  2 23  1  0
  3 24  1  0
  3 25  1  0
  3 26  1  0
  6 27  1  0
  8 28  1  0
 10 29  1  0
 12 30  1  0
M  CHG  2  13   1  14  -1
M  END
$$$$
