
     RDKit          3D

 29 30  0  0  0  0  0  0  0  0999 V2000
    6.1447    0.0381    0.4696 O   0  0  0  0  0  0  0  0  0  0  0  0
    4.7894    0.1593    0.3894 C   0  0  0  0  0  0  0  0  0  0  0  0
    4.0644   -0.9460   -0.0370 C   0  0  0  0  0  0  0  0  0  0  0  0
    2.6729   -0.8670   -0.1336 C   0  0  0  0  0  0  0  0  0  0  0  0
    2.0026    0.3162    0.2056 C   0  0  0  0  0  0  0  0  0  0  0  0
    0.5441    0.4499    0.0871 C   0  0  0  0  0  0  0  0  0  0  0  0
   -0.3211   -0.5180    0.4305 C   0  0  0  0  0  0  0  0  0  0  0  0
   -1.7806   -0.3787    0.3280 C   0  0  0  0  0  0  0  0  0  0  0  0
   -2.3945    0.2289   -0.7769 C   0  0  0  0  0  0  0  0  0  0  0  0
   -3.7853    0.3093   -0.8414 C   0  0  0  0  0  0  0  0  0  0  0  0
   -4.4131    0.8968   -1.9015 O   0  0  0  0  0  0  0  0  0  0  0  0
   -4.5830   -0.2119    0.1702 C   0  0  0  0  0  0  0  0  0  0  0  0
   -3.9723   -0.8277    1.2557 C   0  0  0  0  0  0  0  0  0  0  0  0
   -4.7068   -1.3637    2.2730 O   0  0  0  0  0  0  0  0  0  0  0  0
   -2.5851   -0.9199    1.3393 C   0  0  0  0  0  0  0  0  0  0  0  0
    2.7543    1.4254    0.6187 C   0  0  0  0  0  0  0  0  0  0  0  0
    4.1468    1.3478    0.7172 C   0  0  0  0  0  0  0  0  0  0  0  0
    6.5126    0.8777    0.7902 H   0  0  0  0  0  0  0  0  0  0  0  0
    4.5790   -1.8662   -0.2981 H   0  0  0  0  0  0  0  0  0  0  0  0
    2.1230   -1.7361   -0.4857 H   0  0  0  0  0  0  0  0  0  0  0  0
    0.1898    1.4137   -0.2700 H   0  0  0  0  0  0  0  0  0  0  0  0
    0.0310   -1.4601    0.8451 H   0  0  0  0  0  0  0  0  0  0  0  0
   -1.7861    0.6242   -1.5845 H   0  0  0  0  0  0  0  0  0  0  0  0
   -3.7399    1.1984   -2.5340 H   0  0  0  0  0  0  0  0  0  0  0  0
   -5.6619   -0.1347    0.0920 H   0  0  0  0  0  0  0  0  0  0  0  0
   -5.6487   -1.2241    2.0793 H   0  0  0  0  0  0  0  0  0  0  0  0
   -2.1392   -1.4080    2.2025 H   0  0  0  0  0  0  0  0  0  0  0  0
    2.2585    2.3583    0.8783 H   0  0  0  0  0  0  0  0  0  0  0  0
    4.7045    2.2181    1.0478 H   0  0  0  0  0  0  0  0  0  0  0  0
  1  2  1  0
  2  3  2  0
  3  4  1  0
  4  5  2  0
  5  6  1  0
  6  7  2  0
  7  8  1  0
  8  9  2  0
  9 10  1  0
 10 11  1  0
 10 12  2  0
 12 13  1  0
 13 14  1  0
 13 15  2  0
  5 16  1  0
 16 17  2  0
 17  2  1  0
 15  8  1  0
  1 18  1  0
  3 19  1  0
  4 20  1  0
  6 21  1  0
  7 22  1  0
  9 23  1  0
 11 24  1  0
 12 25  1  0
 14 26  1  0
 15 27  1  0
 16 28  1  0
 17 29  1  0
M  END
$$$$
