
     RDKit          3D

 33 32  0  0  0  0  0  0  0  0999 V2000
   -1.9681    1.6055   -1.4309 C   0  0  0  0  0  0  0  0  0  0  0  0
   -1.9998    0.7342   -0.1566 C   0  0  0  0  0  0  0  0  0  0  0  0
   -2.1447   -0.7429   -0.5726 C   0  0  0  0  0  0  0  0  0  0  0  0
   -3.2569    1.1658    0.6443 C   0  0  0  0  0  0  0  0  0  0  0  0
   -3.4922    0.3468    1.7780 O   0  0  0  0  0  0  0  0  0  0  0  0
   -0.7188    0.9634    0.7030 C   0  0  0  0  0  0  0  0  0  0  0  0
   -0.6428    0.0204    1.7801 O   0  0  0  0  0  0  0  0  0  0  0  0
    0.5914    0.8660   -0.1103 C   0  0  0  0  0  0  0  0  0  0  0  0
    1.0338    1.7961   -0.7769 O   0  0  0  0  0  0  0  0  0  0  0  0
    1.2079   -0.3678   -0.0183 N   0  0  0  0  0  0  0  0  0  0  0  0
    2.2702   -0.7578   -0.9235 C   0  0  0  0  0  0  0  0  0  0  0  0
    3.1679   -1.8427   -0.3330 C   0  0  0  0  0  0  0  0  0  0  0  0
    4.0333   -1.3312    0.8149 C   0  0  0  0  0  0  0  0  0  0  0  0
    3.2394   -0.9926    1.9439 O   0  0  0  0  0  0  0  0  0  0  0  0
   -1.8011    2.6600   -1.1843 H   0  0  0  0  0  0  0  0  0  0  0  0
   -1.1816    1.2872   -2.1231 H   0  0  0  0  0  0  0  0  0  0  0  0
   -2.9154    1.5391   -1.9789 H   0  0  0  0  0  0  0  0  0  0  0  0
   -2.1746   -1.4137    0.2923 H   0  0  0  0  0  0  0  0  0  0  0  0
   -3.0697   -0.8993   -1.1398 H   0  0  0  0  0  0  0  0  0  0  0  0
   -1.3150   -1.0606   -1.2128 H   0  0  0  0  0  0  0  0  0  0  0  0
   -4.1503    1.1095    0.0113 H   0  0  0  0  0  0  0  0  0  0  0  0
   -3.1572    2.2023    0.9868 H   0  0  0  0  0  0  0  0  0  0  0  0
   -4.3009    0.6696    2.2099 H   0  0  0  0  0  0  0  0  0  0  0  0
   -0.7413    1.9659    1.1490 H   0  0  0  0  0  0  0  0  0  0  0  0
   -0.0745    0.4119    2.4660 H   0  0  0  0  0  0  0  0  0  0  0  0
    0.6370   -1.0932    0.4160 H   0  0  0  0  0  0  0  0  0  0  0  0
    1.7841   -1.1339   -1.8306 H   0  0  0  0  0  0  0  0  0  0  0  0
    2.8585    0.1219   -1.2066 H   0  0  0  0  0  0  0  0  0  0  0  0
    2.5485   -2.6767    0.0183 H   0  0  0  0  0  0  0  0  0  0  0  0
    3.8249   -2.2221   -1.1238 H   0  0  0  0  0  0  0  0  0  0  0  0
    4.6125   -0.4513    0.5169 H   0  0  0  0  0  0  0  0  0  0  0  0
    4.7370   -2.1090    1.1268 H   0  0  0  0  0  0  0  0  0  0  0  0
    2.5586   -0.3709    1.6257 H   0  0  0  0  0  0  0  0  0  0  0  0
  1  2  1  0
  2  3  1  0
  2  4  1  0
  4  5  1  0
  2  6  1  0
  6  7  1  0
  6  8  1  0
  8  9  2  0
  8 10  1  0
 10 11  1  0
 11 12  1  0
 12 13  1  0
 13 14  1  0
  1 15  1  0
  1 16  1  0
  1 17  1  0
  3 18  1  0
  3 19  1  0
  3 20  1  0
  4 21  1  0
  4 22  1  0
  5 23  1  0
  6 24  1  0
  7 25  1  0
 10 26  1  0
 11 27  1  0
 11 28  1  0
 12 29  1  0
 12 30  1  0
 13 31  1  0
 13 32  1  0
 14 33  1  0
M  END
$$$$
