
     RDKit          3D

 54 57  0  0  0  0  0  0  0  0999 V2000
    2.0002   -0.6481   -1.9797 C   0  0  0  0  0  0  0  0  0  0  0  0
    1.7374   -0.2187   -0.5116 C   0  0  0  0  0  0  0  0  0  0  0  0
    0.8474    1.0418   -0.5134 C   0  0  0  0  0  0  0  0  0  0  0  0
   -0.5842    0.8238   -1.0240 C   0  0  0  0  0  0  0  0  0  0  0  0
   -0.5951    1.0254   -2.4425 O   0  0  0  0  0  0  0  0  0  0  0  0
   -1.1912   -0.5767   -0.7296 C   0  0  0  0  0  0  0  0  0  0  0  0
   -0.5021   -1.2500    0.4886 C   0  0  0  0  0  0  0  0  0  0  0  0
   -0.9179   -0.5858    1.8170 C   0  0  0  0  0  0  0  0  0  0  0  0
   -2.4364   -0.5027    1.9851 C   0  0  0  0  0  0  0  0  0  0  0  0
   -3.1060    0.0983    0.7756 C   0  0  0  0  0  0  0  0  0  0  0  0
   -3.9325    1.1516    0.9025 C   0  0  0  0  0  0  0  0  0  0  0  0
   -4.5712    1.7889   -0.2693 C   0  0  0  0  0  0  0  0  0  0  0  0
   -5.3365    2.7357   -0.1387 O   0  0  0  0  0  0  0  0  0  0  0  0
   -4.2351    1.2513   -1.6011 C   0  0  0  0  0  0  0  0  0  0  0  0
   -3.4105    0.2037   -1.7291 C   0  0  0  0  0  0  0  0  0  0  0  0
   -2.7584   -0.5376   -0.5709 C   0  0  0  0  0  0  0  0  0  0  0  0
   -3.3492   -1.9678   -0.6277 C   0  0  0  0  0  0  0  0  0  0  0  0
    1.0236   -1.3922    0.2417 C   0  0  0  0  0  0  0  0  0  0  0  0
    1.8710   -1.6855    1.4809 C   0  0  0  0  0  0  0  0  0  0  0  0
    3.2804   -1.3348    1.0416 C   0  0  0  0  0  0  0  0  0  0  0  0
    3.1152   -0.0317    0.2428 C   0  0  0  0  0  0  0  0  0  0  0  0
    4.2207    0.0708   -0.6671 O   0  0  0  0  0  0  0  0  0  0  0  0
    3.1763    1.1985    1.1877 C   0  0  0  0  0  0  0  0  0  0  0  0
    2.7397    1.1644    2.3418 O   0  0  0  0  0  0  0  0  0  0  0  0
    3.8563    2.4646    0.6548 C   0  0  0  0  0  0  0  0  0  0  0  0
    3.6676    2.7324   -0.7207 O   0  0  0  0  0  0  0  0  0  0  0  0
    2.6876   -1.5011   -2.0277 H   0  0  0  0  0  0  0  0  0  0  0  0
    2.4415    0.1714   -2.5579 H   0  0  0  0  0  0  0  0  0  0  0  0
    1.0867   -0.9582   -2.4937 H   0  0  0  0  0  0  0  0  0  0  0  0
    1.3257    1.8290   -1.1076 H   0  0  0  0  0  0  0  0  0  0  0  0
    0.7673    1.4352    0.5043 H   0  0  0  0  0  0  0  0  0  0  0  0
   -1.2079    1.6170   -0.5970 H   0  0  0  0  0  0  0  0  0  0  0  0
   -0.3546    1.9555   -2.6035 H   0  0  0  0  0  0  0  0  0  0  0  0
   -0.9887   -1.2137   -1.6037 H   0  0  0  0  0  0  0  0  0  0  0  0
   -0.8702   -2.2831    0.5531 H   0  0  0  0  0  0  0  0  0  0  0  0
   -0.4927    0.4180    1.9080 H   0  0  0  0  0  0  0  0  0  0  0  0
   -0.5319   -1.1666    2.6629 H   0  0  0  0  0  0  0  0  0  0  0  0
   -2.8427   -1.5055    2.1644 H   0  0  0  0  0  0  0  0  0  0  0  0
   -2.6567    0.0771    2.8903 H   0  0  0  0  0  0  0  0  0  0  0  0
   -4.1712    1.6006    1.8598 H   0  0  0  0  0  0  0  0  0  0  0  0
   -4.6803    1.7497   -2.4532 H   0  0  0  0  0  0  0  0  0  0  0  0
   -3.1771   -0.1510   -2.7315 H   0  0  0  0  0  0  0  0  0  0  0  0
   -2.9897   -2.6141    0.1780 H   0  0  0  0  0  0  0  0  0  0  0  0
   -3.0962   -2.4639   -1.5727 H   0  0  0  0  0  0  0  0  0  0  0  0
   -4.4441   -1.9501   -0.5509 H   0  0  0  0  0  0  0  0  0  0  0  0
    1.1256   -2.2842   -0.3971 H   0  0  0  0  0  0  0  0  0  0  0  0
    1.7909   -2.7325    1.7898 H   0  0  0  0  0  0  0  0  0  0  0  0
    1.5935   -1.0660    2.3356 H   0  0  0  0  0  0  0  0  0  0  0  0
    3.9557   -1.2275    1.8974 H   0  0  0  0  0  0  0  0  0  0  0  0
    3.6907   -2.1307    0.4069 H   0  0  0  0  0  0  0  0  0  0  0  0
    5.0128   -0.2870   -0.2244 H   0  0  0  0  0  0  0  0  0  0  0  0
    4.9295    2.3853    0.8531 H   0  0  0  0  0  0  0  0  0  0  0  0
    3.4654    3.3204    1.2127 H   0  0  0  0  0  0  0  0  0  0  0  0
    4.0216    1.9560   -1.2042 H   0  0  0  0  0  0  0  0  0  0  0  0
  1  2  1  0
  2  3  1  0
  3  4  1  0
  4  5  1  0
  4  6  1  0
  6  7  1  0
  7  8  1  0
  8  9  1  0
  9 10  1  0
 10 11  2  0
 11 12  1  0
 12 13  2  0
 12 14  1  0
 14 15  2  0
 15 16  1  0
 16 17  1  0
  7 18  1  0
 18 19  1  0
 19 20  1  0
 20 21  1  0
 21 22  1  0
 21 23  1  0
 23 24  2  0
 23 25  1  0
 25 26  1  0
 18  2  1  0
 21  2  1  0
 16  6  1  0
 16 10  1  0
  1 27  1  0
  1 28  1  0
  1 29  1  0
  3 30  1  0
  3 31  1  0
  4 32  1  0
  5 33  1  0
  6 34  1  0
  7 35  1  0
  8 36  1  0
  8 37  1  0
  9 38  1  0
  9 39  1  0
 11 40  1  0
 14 41  1  0
 15 42  1  0
 17 43  1  0
 17 44  1  0
 17 45  1  0
 18 46  1  0
 19 47  1  0
 19 48  1  0
 20 49  1  0
 20 50  1  0
 22 51  1  0
 25 52  1  0
 25 53  1  0
 26 54  1  0
M  END
$$$$
