
     RDKit          3D

 53 56  0  0  0  0  0  0  0  0999 V2000
    5.7321    0.7738   -0.5157 C   0  0  0  0  0  0  0  0  0  0  0  0
    4.3040    0.7508   -1.0005 C   0  0  0  0  0  0  0  0  0  0  0  0
    4.0442    1.0086   -2.1761 O   0  0  0  0  0  0  0  0  0  0  0  0
    3.2134    0.4986    0.0377 C   0  0  0  0  0  0  0  0  0  0  0  0
    3.5482   -0.6132    1.0586 C   0  0  0  0  0  0  0  0  0  0  0  0
    2.2056   -1.2359    1.4803 C   0  0  0  0  0  0  0  0  0  0  0  0
    1.1607   -0.3460    0.8138 C   0  0  0  0  0  0  0  0  0  0  0  0
   -0.2733   -0.9028    0.6815 C   0  0  0  0  0  0  0  0  0  0  0  0
   -0.9545   -0.7670    2.0652 C   0  0  0  0  0  0  0  0  0  0  0  0
   -2.4541   -1.0146    2.0610 C   0  0  0  0  0  0  0  0  0  0  0  0
   -3.0868   -0.1255    1.0249 C   0  0  0  0  0  0  0  0  0  0  0  0
   -3.9659    0.8219    1.3913 C   0  0  0  0  0  0  0  0  0  0  0  0
   -4.4809    1.8116    0.4213 C   0  0  0  0  0  0  0  0  0  0  0  0
   -5.3805    2.5777    0.7561 O   0  0  0  0  0  0  0  0  0  0  0  0
   -3.7910    1.9058   -0.9125 C   0  0  0  0  0  0  0  0  0  0  0  0
   -3.4010    0.5233   -1.4178 C   0  0  0  0  0  0  0  0  0  0  0  0
   -2.6147   -0.3605   -0.4034 C   0  0  0  0  0  0  0  0  0  0  0  0
   -2.9504   -1.8284   -0.8114 C   0  0  0  0  0  0  0  0  0  0  0  0
   -1.0519   -0.1949   -0.4934 C   0  0  0  0  0  0  0  0  0  0  0  0
   -0.5034    1.2310   -0.7026 C   0  0  0  0  0  0  0  0  0  0  0  0
    0.9957    1.2489   -1.0951 C   0  0  0  0  0  0  0  0  0  0  0  0
    1.8188    0.0822   -0.5082 C   0  0  0  0  0  0  0  0  0  0  0  0
    1.9523   -1.0829   -1.5246 C   0  0  0  0  0  0  0  0  0  0  0  0
    6.0619   -0.2381   -0.2714 H   0  0  0  0  0  0  0  0  0  0  0  0
    6.3788    1.1719   -1.3030 H   0  0  0  0  0  0  0  0  0  0  0  0
    5.8141    1.4234    0.3594 H   0  0  0  0  0  0  0  0  0  0  0  0
    3.1177    1.4441    0.5919 H   0  0  0  0  0  0  0  0  0  0  0  0
    4.0682   -0.1895    1.9253 H   0  0  0  0  0  0  0  0  0  0  0  0
    4.2007   -1.3856    0.6368 H   0  0  0  0  0  0  0  0  0  0  0  0
    2.1389   -2.2706    1.1260 H   0  0  0  0  0  0  0  0  0  0  0  0
    2.0965   -1.2503    2.5695 H   0  0  0  0  0  0  0  0  0  0  0  0
    1.0972    0.5591    1.4415 H   0  0  0  0  0  0  0  0  0  0  0  0
   -0.2239   -1.9732    0.4429 H   0  0  0  0  0  0  0  0  0  0  0  0
   -0.4808   -1.4587    2.7728 H   0  0  0  0  0  0  0  0  0  0  0  0
   -0.7835    0.2422    2.4648 H   0  0  0  0  0  0  0  0  0  0  0  0
   -2.8515   -0.8064    3.0622 H   0  0  0  0  0  0  0  0  0  0  0  0
   -2.6752   -2.0684    1.8644 H   0  0  0  0  0  0  0  0  0  0  0  0
   -4.2998    0.9554    2.4143 H   0  0  0  0  0  0  0  0  0  0  0  0
   -2.9327    2.5728   -0.8026 H   0  0  0  0  0  0  0  0  0  0  0  0
   -4.4812    2.3659   -1.6287 H   0  0  0  0  0  0  0  0  0  0  0  0
   -4.3410    0.0153   -1.6805 H   0  0  0  0  0  0  0  0  0  0  0  0
   -2.8476    0.6108   -2.3609 H   0  0  0  0  0  0  0  0  0  0  0  0
   -4.0075   -2.0599   -0.6321 H   0  0  0  0  0  0  0  0  0  0  0  0
   -2.3572   -2.5698   -0.2675 H   0  0  0  0  0  0  0  0  0  0  0  0
   -2.7535   -1.9898   -1.8784 H   0  0  0  0  0  0  0  0  0  0  0  0
   -0.7825   -0.7181   -1.4196 H   0  0  0  0  0  0  0  0  0  0  0  0
   -0.6512    1.8201    0.2108 H   0  0  0  0  0  0  0  0  0  0  0  0
   -1.0362    1.7497   -1.5038 H   0  0  0  0  0  0  0  0  0  0  0  0
    1.4098    2.2146   -0.7790 H   0  0  0  0  0  0  0  0  0  0  0  0
    1.0742    1.2450   -2.1897 H   0  0  0  0  0  0  0  0  0  0  0  0
    2.7027   -1.8186   -1.2172 H   0  0  0  0  0  0  0  0  0  0  0  0
    2.2541   -0.7176   -2.5116 H   0  0  0  0  0  0  0  0  0  0  0  0
    1.0240   -1.6381   -1.6670 H   0  0  0  0  0  0  0  0  0  0  0  0
  1  2  1  0
  2  3  2  0
  2  4  1  0
  4  5  1  0
  5  6  1  0
  6  7  1  0
  7  8  1  0
  8  9  1  0
  9 10  1  0
 10 11  1  0
 11 12  2  0
 12 13  1  0
 13 14  2  0
 13 15  1  0
 15 16  1  0
 16 17  1  0
 17 18  1  0
 17 19  1  0
 19 20  1  0
 20 21  1  0
 21 22  1  0
 22 23  1  0
 22  4  1  0
 22  7  1  0
 19  8  1  0
 17 11  1  0
  1 24  1  0
  1 25  1  0
  1 26  1  0
  4 27  1  0
  5 28  1  0
  5 29  1  0
  6 30  1  0
  6 31  1  0
  7 32  1  0
  8 33  1  0
  9 34  1  0
  9 35  1  0
 10 36  1  0
 10 37  1  0
 12 38  1  0
 15 39  1  0
 15 40  1  0
 16 41  1  0
 16 42  1  0
 18 43  1  0
 18 44  1  0
 18 45  1  0
 19 46  1  0
 20 47  1  0
 20 48  1  0
 21 49  1  0
 21 50  1  0
 23 51  1  0
 23 52  1  0
 23 53  1  0
M  END
$$$$
