
     RDKit          3D

 53 56  0  0  0  0  0  0  0  0999 V2000
    4.9448   -1.6272   -0.0345 C   0  0  0  0  0  0  0  0  0  0  0  0
    3.7243   -1.3376    0.8013 C   0  0  0  0  0  0  0  0  0  0  0  0
    3.2279   -2.2177    1.5049 O   0  0  0  0  0  0  0  0  0  0  0  0
    3.1274    0.0643    0.7031 C   0  0  0  0  0  0  0  0  0  0  0  0
    2.2475    0.3978    1.9021 C   0  0  0  0  0  0  0  0  0  0  0  0
    1.4859    1.6299    1.4561 C   0  0  0  0  0  0  0  0  0  0  0  0
    1.2569    1.4765   -0.0598 C   0  0  0  0  0  0  0  0  0  0  0  0
   -0.2085    1.2105   -0.4820 C   0  0  0  0  0  0  0  0  0  0  0  0
   -1.1494    2.3517   -0.0641 C   0  0  0  0  0  0  0  0  0  0  0  0
   -2.5641    2.1131   -0.5763 C   0  0  0  0  0  0  0  0  0  0  0  0
   -3.1023    0.7735   -0.1311 C   0  0  0  0  0  0  0  0  0  0  0  0
   -4.3136    0.7026    0.4495 C   0  0  0  0  0  0  0  0  0  0  0  0
   -4.9421   -0.5944    0.7902 C   0  0  0  0  0  0  0  0  0  0  0  0
   -6.0406   -0.6068    1.3404 O   0  0  0  0  0  0  0  0  0  0  0  0
   -4.2406   -1.8561    0.3623 C   0  0  0  0  0  0  0  0  0  0  0  0
   -2.7311   -1.6706    0.4167 C   0  0  0  0  0  0  0  0  0  0  0  0
   -2.2189   -0.4512   -0.4073 C   0  0  0  0  0  0  0  0  0  0  0  0
   -2.3197   -0.7729   -1.9169 C   0  0  0  0  0  0  0  0  0  0  0  0
   -0.7344   -0.1500    0.0381 C   0  0  0  0  0  0  0  0  0  0  0  0
    0.2581   -1.2988   -0.2606 C   0  0  0  0  0  0  0  0  0  0  0  0
    1.4668   -0.8729   -1.0895 C   0  0  0  0  0  0  0  0  0  0  0  0
    2.2376    0.3534   -0.5398 C   0  0  0  0  0  0  0  0  0  0  0  0
    3.1178    0.8978   -1.6853 C   0  0  0  0  0  0  0  0  0  0  0  0
    4.6506   -1.8213   -1.0675 H   0  0  0  0  0  0  0  0  0  0  0  0
    5.6378   -0.7833    0.0090 H   0  0  0  0  0  0  0  0  0  0  0  0
    5.4568   -2.5080    0.3635 H   0  0  0  0  0  0  0  0  0  0  0  0
    3.9724    0.7671    0.7303 H   0  0  0  0  0  0  0  0  0  0  0  0
    1.5554   -0.4104    2.1552 H   0  0  0  0  0  0  0  0  0  0  0  0
    2.8436    0.5962    2.7995 H   0  0  0  0  0  0  0  0  0  0  0  0
    0.5756    1.7611    2.0448 H   0  0  0  0  0  0  0  0  0  0  0  0
    2.1080    2.5171    1.6319 H   0  0  0  0  0  0  0  0  0  0  0  0
    1.5423    2.4347   -0.5172 H   0  0  0  0  0  0  0  0  0  0  0  0
   -0.2140    1.1914   -1.5805 H   0  0  0  0  0  0  0  0  0  0  0  0
   -0.7792    3.3036   -0.4635 H   0  0  0  0  0  0  0  0  0  0  0  0
   -1.1831    2.4571    1.0259 H   0  0  0  0  0  0  0  0  0  0  0  0
   -2.5718    2.1555   -1.6723 H   0  0  0  0  0  0  0  0  0  0  0  0
   -3.2062    2.9334   -0.2327 H   0  0  0  0  0  0  0  0  0  0  0  0
   -4.9235    1.5772    0.6483 H   0  0  0  0  0  0  0  0  0  0  0  0
   -4.5806   -2.1245   -0.6427 H   0  0  0  0  0  0  0  0  0  0  0  0
   -4.5279   -2.6620    1.0468 H   0  0  0  0  0  0  0  0  0  0  0  0
   -2.2534   -2.5981    0.0801 H   0  0  0  0  0  0  0  0  0  0  0  0
   -2.4457   -1.5436    1.4706 H   0  0  0  0  0  0  0  0  0  0  0  0
   -1.8491   -0.0032   -2.5364 H   0  0  0  0  0  0  0  0  0  0  0  0
   -3.3641   -0.8460   -2.2426 H   0  0  0  0  0  0  0  0  0  0  0  0
   -1.8444   -1.7266   -2.1662 H   0  0  0  0  0  0  0  0  0  0  0  0
   -0.7663   -0.0624    1.1353 H   0  0  0  0  0  0  0  0  0  0  0  0
   -0.2252   -2.1314   -0.7798 H   0  0  0  0  0  0  0  0  0  0  0  0
    0.5967   -1.7314    0.6870 H   0  0  0  0  0  0  0  0  0  0  0  0
    2.1365   -1.7307   -1.2180 H   0  0  0  0  0  0  0  0  0  0  0  0
    1.1051   -0.6496   -2.1032 H   0  0  0  0  0  0  0  0  0  0  0  0
    3.8098    0.1368   -2.0579 H   0  0  0  0  0  0  0  0  0  0  0  0
    3.7120    1.7590   -1.3595 H   0  0  0  0  0  0  0  0  0  0  0  0
    2.5025    1.2276   -2.5305 H   0  0  0  0  0  0  0  0  0  0  0  0
  1  2  1  0
  2  3  2  0
  2  4  1  0
  4  5  1  0
  5  6  1  0
  6  7  1  0
  7  8  1  0
  8  9  1  0
  9 10  1  0
 10 11  1  0
 11 12  2  0
 12 13  1  0
 13 14  2  0
 13 15  1  0
 15 16  1  0
 16 17  1  0
 17 18  1  0
 17 19  1  0
 19 20  1  0
 20 21  1  0
 21 22  1  0
 22 23  1  0
 22  4  1  0
 22  7  1  0
 19  8  1  0
 17 11  1  0
  1 24  1  0
  1 25  1  0
  1 26  1  0
  4 27  1  0
  5 28  1  0
  5 29  1  0
  6 30  1  0
  6 31  1  0
  7 32  1  0
  8 33  1  0
  9 34  1  0
  9 35  1  0
 10 36  1  0
 10 37  1  0
 12 38  1  0
 15 39  1  0
 15 40  1  0
 16 41  1  0
 16 42  1  0
 18 43  1  0
 18 44  1  0
 18 45  1  0
 19 46  1  0
 20 47  1  0
 20 48  1  0
 21 49  1  0
 21 50  1  0
 23 51  1  0
 23 52  1  0
 23 53  1  0
M  END
$$$$
