
     RDKit          3D

 32 34  0  0  0  0  0  0  0  0999 V2000
   -4.8195   -2.4361   -0.1365 O   0  0  0  0  0  0  0  0  0  0  0  0
   -4.0262   -1.3299   -0.0614 C   0  0  0  0  0  0  0  0  0  0  0  0
   -4.5723   -0.0505   -0.0020 C   0  0  0  0  0  0  0  0  0  0  0  0
   -3.7196    1.0482    0.0744 C   0  0  0  0  0  0  0  0  0  0  0  0
   -4.3090    2.2821    0.1316 O   0  0  0  0  0  0  0  0  0  0  0  0
   -2.3332    0.8631    0.0905 C   0  0  0  0  0  0  0  0  0  0  0  0
   -1.4061    1.9928    0.1712 C   0  0  0  0  0  0  0  0  0  0  0  0
   -1.8020    3.1547    0.2346 O   0  0  0  0  0  0  0  0  0  0  0  0
    0.0437    1.6902    0.1759 C   0  0  0  0  0  0  0  0  0  0  0  0
    0.9105    2.7633    0.2677 O   0  0  0  0  0  0  0  0  0  0  0  0
    0.4316    0.4031    0.1084 C   0  0  0  0  0  0  0  0  0  0  0  0
   -0.4503   -0.6697    0.0459 O   0  0  0  0  0  0  0  0  0  0  0  0
   -1.7989   -0.4206    0.0310 C   0  0  0  0  0  0  0  0  0  0  0  0
   -2.6475   -1.5243   -0.0456 C   0  0  0  0  0  0  0  0  0  0  0  0
    1.8494   -0.0185    0.1189 C   0  0  0  0  0  0  0  0  0  0  0  0
    2.2544   -1.0788    0.9471 C   0  0  0  0  0  0  0  0  0  0  0  0
    3.5838   -1.5032    0.9488 C   0  0  0  0  0  0  0  0  0  0  0  0
    3.9798   -2.5318    1.7581 O   0  0  0  0  0  0  0  0  0  0  0  0
    4.5216   -0.8834    0.1249 C   0  0  0  0  0  0  0  0  0  0  0  0
    5.8185   -1.3128    0.1415 O   0  0  0  0  0  0  0  0  0  0  0  0
    4.1364    0.1621   -0.7088 C   0  0  0  0  0  0  0  0  0  0  0  0
    2.8041    0.5882   -0.7131 C   0  0  0  0  0  0  0  0  0  0  0  0
   -5.7509   -2.1569   -0.1453 H   0  0  0  0  0  0  0  0  0  0  0  0
   -5.6460    0.1095   -0.0134 H   0  0  0  0  0  0  0  0  0  0  0  0
   -3.6023    2.9637    0.1854 H   0  0  0  0  0  0  0  0  0  0  0  0
    0.3375    3.5563    0.3312 H   0  0  0  0  0  0  0  0  0  0  0  0
   -2.2408   -2.5308   -0.0941 H   0  0  0  0  0  0  0  0  0  0  0  0
    1.5277   -1.5650    1.5918 H   0  0  0  0  0  0  0  0  0  0  0  0
    3.2170   -2.8526    2.2624 H   0  0  0  0  0  0  0  0  0  0  0  0
    6.3393   -0.7705   -0.4700 H   0  0  0  0  0  0  0  0  0  0  0  0
    4.8510    0.6552   -1.3600 H   0  0  0  0  0  0  0  0  0  0  0  0
    2.5183    1.4026   -1.3759 H   0  0  0  0  0  0  0  0  0  0  0  0
  1  2  1  0
  2  3  2  0
  3  4  1  0
  4  5  1  0
  4  6  2  0
  6  7  1  0
  7  8  2  0
  7  9  1  0
  9 10  1  0
  9 11  2  0
 11 12  1  0
 12 13  1  0
 13 14  2  0
 11 15  1  0
 15 16  2  0
 16 17  1  0
 17 18  1  0
 17 19  2  0
 19 20  1  0
 19 21  1  0
 21 22  2  0
 14  2  1  0
 22 15  1  0
 13  6  1  0
  1 23  1  0
  3 24  1  0
  5 25  1  0
 10 26  1  0
 14 27  1  0
 16 28  1  0
 18 29  1  0
 20 30  1  0
 21 31  1  0
 22 32  1  0
M  END
$$$$
