
     RDKit          3D

 32 34  0  0  0  0  0  0  0  0999 V2000
    4.6088    2.7665   -0.5619 O   0  0  0  0  0  0  0  0  0  0  0  0
    3.8602    1.6377   -0.4106 C   0  0  0  0  0  0  0  0  0  0  0  0
    4.5314    0.4206   -0.3654 C   0  0  0  0  0  0  0  0  0  0  0  0
    3.8063   -0.7629   -0.2096 C   0  0  0  0  0  0  0  0  0  0  0  0
    4.4823   -1.9479   -0.1650 O   0  0  0  0  0  0  0  0  0  0  0  0
    2.4104   -0.7269   -0.1001 C   0  0  0  0  0  0  0  0  0  0  0  0
    1.5803   -1.9373    0.0667 C   0  0  0  0  0  0  0  0  0  0  0  0
    2.0000   -3.0891    0.1120 O   0  0  0  0  0  0  0  0  0  0  0  0
    0.1138   -1.7353    0.1891 C   0  0  0  0  0  0  0  0  0  0  0  0
   -0.6570   -2.8746    0.3424 O   0  0  0  0  0  0  0  0  0  0  0  0
   -0.3848   -0.4890    0.1297 C   0  0  0  0  0  0  0  0  0  0  0  0
    0.3926    0.6438   -0.0535 O   0  0  0  0  0  0  0  0  0  0  0  0
    1.7550    0.5060   -0.1493 C   0  0  0  0  0  0  0  0  0  0  0  0
    2.4763    1.6933   -0.3043 C   0  0  0  0  0  0  0  0  0  0  0  0
   -1.8285   -0.1874    0.2307 C   0  0  0  0  0  0  0  0  0  0  0  0
   -2.4254    0.6831   -0.6961 C   0  0  0  0  0  0  0  0  0  0  0  0
   -3.7811    0.9977   -0.5937 C   0  0  0  0  0  0  0  0  0  0  0  0
   -4.3650    1.8407   -1.4983 O   0  0  0  0  0  0  0  0  0  0  0  0
   -4.5539    0.4565    0.4324 C   0  0  0  0  0  0  0  0  0  0  0  0
   -5.8795    0.7769    0.5157 O   0  0  0  0  0  0  0  0  0  0  0  0
   -3.9771   -0.4026    1.3630 C   0  0  0  0  0  0  0  0  0  0  0  0
   -2.6186   -0.7191    1.2625 C   0  0  0  0  0  0  0  0  0  0  0  0
    4.0232    3.5426   -0.5644 H   0  0  0  0  0  0  0  0  0  0  0  0
    5.6141    0.4129   -0.4514 H   0  0  0  0  0  0  0  0  0  0  0  0
    5.4367   -1.7947   -0.2569 H   0  0  0  0  0  0  0  0  0  0  0  0
   -0.0087   -3.6128    0.3183 H   0  0  0  0  0  0  0  0  0  0  0  0
    1.9463    2.6403   -0.3380 H   0  0  0  0  0  0  0  0  0  0  0  0
   -1.8268    1.1073   -1.4970 H   0  0  0  0  0  0  0  0  0  0  0  0
   -3.7144    2.0815   -2.1747 H   0  0  0  0  0  0  0  0  0  0  0  0
   -6.2746    0.2950    1.2580 H   0  0  0  0  0  0  0  0  0  0  0  0
   -4.5616   -0.8337    2.1695 H   0  0  0  0  0  0  0  0  0  0  0  0
   -2.1805   -1.3889    2.0002 H   0  0  0  0  0  0  0  0  0  0  0  0
  1  2  1  0
  2  3  2  0
  3  4  1  0
  4  5  1  0
  4  6  2  0
  6  7  1  0
  7  8  2  0
  7  9  1  0
  9 10  1  0
  9 11  2  0
 11 12  1  0
 12 13  1  0
 13 14  2  0
 11 15  1  0
 15 16  2  0
 16 17  1  0
 17 18  1  0
 17 19  2  0
 19 20  1  0
 19 21  1  0
 21 22  2  0
 14  2  1  0
 22 15  1  0
 13  6  1  0
  1 23  1  0
  3 24  1  0
  5 25  1  0
 10 26  1  0
 14 27  1  0
 16 28  1  0
 18 29  1  0
 20 30  1  0
 21 31  1  0
 22 32  1  0
M  END
$$$$
