
     RDKit          3D

 32 34  0  0  0  0  0  0  0  0999 V2000
   -4.3769    3.0384   -0.2150 O   0  0  0  0  0  0  0  0  0  0  0  0
   -3.7288    1.8400   -0.1549 C   0  0  0  0  0  0  0  0  0  0  0  0
   -4.5010    0.6975    0.0029 C   0  0  0  0  0  0  0  0  0  0  0  0
   -3.8717   -0.5481    0.0503 C   0  0  0  0  0  0  0  0  0  0  0  0
   -4.6596   -1.6531    0.1693 O   0  0  0  0  0  0  0  0  0  0  0  0
   -2.4756   -0.6494   -0.0538 C   0  0  0  0  0  0  0  0  0  0  0  0
   -1.7470   -1.9263   -0.0116 C   0  0  0  0  0  0  0  0  0  0  0  0
   -2.2693   -3.0355    0.0215 O   0  0  0  0  0  0  0  0  0  0  0  0
   -0.2566   -1.8596    0.0079 C   0  0  0  0  0  0  0  0  0  0  0  0
    0.3813   -3.0752    0.1479 O   0  0  0  0  0  0  0  0  0  0  0  0
    0.3670   -0.6719   -0.1262 C   0  0  0  0  0  0  0  0  0  0  0  0
   -0.3545    0.5165   -0.2704 O   0  0  0  0  0  0  0  0  0  0  0  0
   -1.7195    0.5140   -0.1911 C   0  0  0  0  0  0  0  0  0  0  0  0
   -2.3465    1.7624   -0.2528 C   0  0  0  0  0  0  0  0  0  0  0  0
    1.8535   -0.4458   -0.1775 C   0  0  0  0  0  0  0  0  0  0  0  0
    2.3470    0.8726   -0.3226 C   0  0  0  0  0  0  0  0  0  0  0  0
    3.7164    1.1197   -0.4198 C   0  0  0  0  0  0  0  0  0  0  0  0
    4.2148    2.3841   -0.5758 O   0  0  0  0  0  0  0  0  0  0  0  0
    4.6286    0.0786   -0.3655 C   0  0  0  0  0  0  0  0  0  0  0  0
    5.9696    0.3226   -0.4716 O   0  0  0  0  0  0  0  0  0  0  0  0
    4.1911   -1.2218   -0.2084 C   0  0  0  0  0  0  0  0  0  0  0  0
    2.8117   -1.4790   -0.1133 C   0  0  0  0  0  0  0  0  0  0  0  0
   -3.7283    3.7432   -0.4160 H   0  0  0  0  0  0  0  0  0  0  0  0
   -5.5834    0.7875    0.0617 H   0  0  0  0  0  0  0  0  0  0  0  0
   -5.3814   -1.4601    0.8061 H   0  0  0  0  0  0  0  0  0  0  0  0
   -0.3251   -3.7538    0.0048 H   0  0  0  0  0  0  0  0  0  0  0  0
   -1.7351    2.6566   -0.3717 H   0  0  0  0  0  0  0  0  0  0  0  0
    1.6608    1.7139   -0.3667 H   0  0  0  0  0  0  0  0  0  0  0  0
    3.4715    3.0099   -0.5097 H   0  0  0  0  0  0  0  0  0  0  0  0
    6.0163    1.2789   -0.6608 H   0  0  0  0  0  0  0  0  0  0  0  0
    4.9048   -2.0391   -0.1555 H   0  0  0  0  0  0  0  0  0  0  0  0
    2.5260   -2.5178    0.0031 H   0  0  0  0  0  0  0  0  0  0  0  0
  1  2  1  0
  2  3  2  0
  3  4  1  0
  4  5  1  0
  4  6  2  0
  6  7  1  0
  7  8  2  0
  7  9  1  0
  9 10  1  0
  9 11  2  0
 11 12  1  0
 12 13  1  0
 13 14  2  0
 11 15  1  0
 15 16  2  0
 16 17  1  0
 17 18  1  0
 17 19  2  0
 19 20  1  0
 19 21  1  0
 21 22  2  0
 14  2  1  0
 22 15  1  0
 13  6  1  0
  1 23  1  0
  3 24  1  0
  5 25  1  0
 10 26  1  0
 14 27  1  0
 16 28  1  0
 18 29  1  0
 20 30  1  0
 21 31  1  0
 22 32  1  0
M  END
$$$$
