
     RDKit          3D

 29 30  0  0  0  0  0  0  0  0999 V2000
    5.9310   -1.3715    0.2540 O   0  0  0  0  0  0  0  0  0  0  0  0
    4.6356   -0.9488    0.2260 C   0  0  0  0  0  0  0  0  0  0  0  0
    4.1144   -0.1396    1.2290 C   0  0  0  0  0  0  0  0  0  0  0  0
    2.7794    0.2699    1.1568 C   0  0  0  0  0  0  0  0  0  0  0  0
    1.9613   -0.1363    0.0927 C   0  0  0  0  0  0  0  0  0  0  0  0
    0.5721    0.3417    0.0434 C   0  0  0  0  0  0  0  0  0  0  0  0
   -0.4585   -0.4004   -0.3930 C   0  0  0  0  0  0  0  0  0  0  0  0
   -1.8441    0.0872   -0.4390 C   0  0  0  0  0  0  0  0  0  0  0  0
   -2.6299   -0.2109   -1.5615 C   0  0  0  0  0  0  0  0  0  0  0  0
   -3.9546    0.2198   -1.6166 C   0  0  0  0  0  0  0  0  0  0  0  0
   -4.7417   -0.0451   -2.6993 O   0  0  0  0  0  0  0  0  0  0  0  0
   -4.5170    0.9334   -0.5664 C   0  0  0  0  0  0  0  0  0  0  0  0
   -3.7432    1.2139    0.5523 C   0  0  0  0  0  0  0  0  0  0  0  0
   -4.3277    1.9064    1.5725 O   0  0  0  0  0  0  0  0  0  0  0  0
   -2.4155    0.7954    0.6284 C   0  0  0  0  0  0  0  0  0  0  0  0
    2.5131   -0.9391   -0.9150 C   0  0  0  0  0  0  0  0  0  0  0  0
    3.8470   -1.3488   -0.8449 C   0  0  0  0  0  0  0  0  0  0  0  0
    6.3559   -1.0178    1.0524 H   0  0  0  0  0  0  0  0  0  0  0  0
    4.7238    0.1826    2.0672 H   0  0  0  0  0  0  0  0  0  0  0  0
    2.3801    0.9037    1.9456 H   0  0  0  0  0  0  0  0  0  0  0  0
    0.4157    1.3588    0.3951 H   0  0  0  0  0  0  0  0  0  0  0  0
   -0.3079   -1.4173   -0.7475 H   0  0  0  0  0  0  0  0  0  0  0  0
   -2.1998   -0.7687   -2.3882 H   0  0  0  0  0  0  0  0  0  0  0  0
   -4.2192   -0.5348   -3.3550 H   0  0  0  0  0  0  0  0  0  0  0  0
   -5.5499    1.2633   -0.6170 H   0  0  0  0  0  0  0  0  0  0  0  0
   -3.6806    2.0159    2.2880 H   0  0  0  0  0  0  0  0  0  0  0  0
   -1.8266    1.0059    1.5158 H   0  0  0  0  0  0  0  0  0  0  0  0
    1.9178   -1.2455   -1.7712 H   0  0  0  0  0  0  0  0  0  0  0  0
    4.2690   -1.9731   -1.6273 H   0  0  0  0  0  0  0  0  0  0  0  0
  1  2  1  0
  2  3  2  0
  3  4  1  0
  4  5  2  0
  5  6  1  0
  6  7  2  0
  7  8  1  0
  8  9  2  0
  9 10  1  0
 10 11  1  0
 10 12  2  0
 12 13  1  0
 13 14  1  0
 13 15  2  0
  5 16  1  0
 16 17  2  0
 17  2  1  0
 15  8  1  0
  1 18  1  0
  3 19  1  0
  4 20  1  0
  6 21  1  0
  7 22  1  0
  9 23  1  0
 11 24  1  0
 12 25  1  0
 14 26  1  0
 15 27  1  0
 16 28  1  0
 17 29  1  0
M  END
$$$$
