
     RDKit          3D

 51 52  0  0  0  0  0  0  0  0999 V2000
    1.3993    2.3182   -0.6740 C   0  0  0  0  0  0  0  0  0  0  0  0
    0.9999    1.1143    0.1756 C   0  0  0  0  0  0  0  0  0  0  0  0
   -0.4891    0.8559    0.1446 C   0  0  0  0  0  0  0  0  0  0  0  0
   -1.2230    0.7996    1.2140 N   0  0  0  0  0  0  0  0  0  0  0  0
   -2.5231    0.5157    0.8365 C   0  0  0  0  0  0  0  0  0  0  0  0
   -2.8220    0.3881   -0.5259 N   0  0  0  0  0  0  0  0  0  0  0  0
   -3.9575    1.0663   -1.1416 C   0  0  0  0  0  0  0  0  0  0  0  0
   -1.3332    0.5289   -1.4271 S   0  0  0  0  0  4  0  0  0  0  0  0
   -1.3176    1.8288   -2.1778 O   0  0  0  0  0  0  0  0  0  0  0  0
   -3.3901    0.3567    1.8590 C   0  0  0  0  0  0  0  0  0  0  0  0
   -4.7923   -0.0645    1.8053 C   0  0  0  0  0  0  0  0  0  0  0  0
   -5.1569   -1.2934    1.2361 C   0  0  0  0  0  0  0  0  0  0  0  0
   -6.4945   -1.6924    1.2215 C   0  0  0  0  0  0  0  0  0  0  0  0
   -7.4609   -0.8679    1.7856 C   0  0  0  0  0  0  0  0  0  0  0  0
   -8.7443   -1.2510    1.7723 F   0  0  0  0  0  0  0  0  0  0  0  0
   -7.1153    0.3465    2.3671 C   0  0  0  0  0  0  0  0  0  0  0  0
   -5.7780    0.7474    2.3822 C   0  0  0  0  0  0  0  0  0  0  0  0
    1.7112   -0.1874   -0.1237 C   0  0  0  0  0  0  0  0  0  0  0  0
    2.3729   -0.5108   -1.2480 C   0  0  0  0  0  0  0  0  0  0  0  0
    3.0559   -1.8247   -1.4729 C   0  0  0  0  0  0  0  0  0  0  0  0
    2.4993   -2.3463   -2.6765 O   0  0  0  0  0  0  0  0  0  0  0  0
    4.5797   -1.7288   -1.6280 C   0  0  0  0  0  0  0  0  0  0  0  0
    5.3054   -1.2335   -0.3683 C   0  0  0  0  0  0  0  0  0  0  0  0
    6.6450   -1.7509   -0.4015 O   0  0  0  0  0  0  0  0  0  0  0  0
    5.4191    0.2936   -0.2983 C   0  0  0  0  0  0  0  0  0  0  0  0
    5.2249    0.7899    1.1082 C   0  0  0  0  0  0  0  0  0  0  0  0
    5.7860    1.9998    1.3041 O   0  0  0  0  0  0  0  0  0  0  0  0
    4.5930    0.2524    2.0021 O   0  0  0  0  0  0  0  0  0  0  0  0
    0.8097    3.1986   -0.3943 H   0  0  0  0  0  0  0  0  0  0  0  0
    2.4572    2.5613   -0.5242 H   0  0  0  0  0  0  0  0  0  0  0  0
    1.2468    2.1515   -1.7447 H   0  0  0  0  0  0  0  0  0  0  0  0
    1.2545    1.3735    1.2130 H   0  0  0  0  0  0  0  0  0  0  0  0
   -4.9112    0.7152   -0.7428 H   0  0  0  0  0  0  0  0  0  0  0  0
   -3.9912    0.8723   -2.2202 H   0  0  0  0  0  0  0  0  0  0  0  0
   -3.8986    2.1499   -0.9882 H   0  0  0  0  0  0  0  0  0  0  0  0
   -3.0197    0.5120    2.8712 H   0  0  0  0  0  0  0  0  0  0  0  0
   -4.4005   -1.9438    0.8014 H   0  0  0  0  0  0  0  0  0  0  0  0
   -6.7861   -2.6394    0.7791 H   0  0  0  0  0  0  0  0  0  0  0  0
   -7.8864    0.9702    2.8074 H   0  0  0  0  0  0  0  0  0  0  0  0
   -5.5108    1.6966    2.8418 H   0  0  0  0  0  0  0  0  0  0  0  0
    1.6667   -0.9184    0.6858 H   0  0  0  0  0  0  0  0  0  0  0  0
    2.4254    0.1882   -2.0801 H   0  0  0  0  0  0  0  0  0  0  0  0
    2.8118   -2.5304   -0.6697 H   0  0  0  0  0  0  0  0  0  0  0  0
    2.8656   -3.2367   -2.8079 H   0  0  0  0  0  0  0  0  0  0  0  0
    4.8414   -1.1041   -2.4930 H   0  0  0  0  0  0  0  0  0  0  0  0
    4.9551   -2.7260   -1.8974 H   0  0  0  0  0  0  0  0  0  0  0  0
    4.8309   -1.6612    0.5213 H   0  0  0  0  0  0  0  0  0  0  0  0
    6.5967   -2.7124   -0.2593 H   0  0  0  0  0  0  0  0  0  0  0  0
    6.4091    0.6160   -0.6431 H   0  0  0  0  0  0  0  0  0  0  0  0
    4.6674    0.7988   -0.9106 H   0  0  0  0  0  0  0  0  0  0  0  0
    5.5729    2.2177    2.2350 H   0  0  0  0  0  0  0  0  0  0  0  0
  1  2  1  0
  2  3  1  0
  3  4  2  0
  4  5  1  0
  5  6  1  0
  6  7  1  0
  6  8  1  0
  8  9  2  0
  5 10  2  3
 10 11  1  0
 11 12  2  0
 12 13  1  0
 13 14  2  0
 14 15  1  0
 14 16  1  0
 16 17  2  0
  2 18  1  0
 18 19  2  0
 19 20  1  0
 20 21  1  0
 20 22  1  0
 22 23  1  0
 23 24  1  0
 23 25  1  0
 25 26  1  0
 26 27  1  0
 26 28  2  0
  8  3  1  0
 17 11  1  0
  1 29  1  0
  1 30  1  0
  1 31  1  0
  2 32  1  0
  7 33  1  0
  7 34  1  0
  7 35  1  0
 10 36  1  0
 12 37  1  0
 13 38  1  0
 16 39  1  0
 17 40  1  0
 18 41  1  0
 19 42  1  0
 20 43  1  0
 21 44  1  0
 22 45  1  0
 22 46  1  0
 23 47  1  0
 24 48  1  0
 25 49  1  0
 25 50  1  0
 27 51  1  0
M  END
$$$$
