
     RDKit          3D

 45 49  0  0  0  0  0  0  0  0999 V2000
   -7.9241    1.2574   -0.5934 N   0  0  0  0  0  0  0  0  0  0  0  0
   -6.9522    0.6256   -0.5383 C   0  0  0  0  0  0  0  0  0  0  0  0
   -5.7531   -0.1561   -0.4644 C   0  0  0  0  0  0  0  0  0  0  0  0
   -5.6028   -1.1211    0.5310 C   0  0  0  0  0  0  0  0  0  0  0  0
   -4.4293   -1.8805    0.5969 C   0  0  0  0  0  0  0  0  0  0  0  0
   -3.3719   -1.6991   -0.3158 C   0  0  0  0  0  0  0  0  0  0  0  0
   -3.5575   -0.7293   -1.3156 C   0  0  0  0  0  0  0  0  0  0  0  0
   -4.7273    0.0376   -1.3896 C   0  0  0  0  0  0  0  0  0  0  0  0
   -2.1309   -2.5612   -0.1949 C   0  0  0  0  0  0  0  0  0  0  0  0
   -0.8835   -2.3115   -0.9940 C   0  0  0  0  0  0  0  0  0  0  0  0
   -0.8582   -2.0955    0.5002 C   0  0  0  0  0  0  0  0  0  0  0  0
   -0.6554   -0.7229    1.0180 C   0  0  0  0  0  0  0  0  0  0  0  0
   -1.5242   -0.0831    1.8255 C   0  0  0  0  0  0  0  0  0  0  0  0
   -1.1594    1.2912    2.2516 C   0  0  0  0  0  0  0  0  0  0  0  0
   -0.0688    1.9242    1.9521 N   0  0  0  0  0  0  0  0  0  0  0  0
    0.8180    1.2377    1.1750 C   0  0  0  0  0  0  0  0  0  0  0  0
    2.0618    1.6032    0.7042 C   0  0  0  0  0  0  0  0  0  0  0  0
    2.6002    0.5221   -0.0457 C   0  0  0  0  0  0  0  0  0  0  0  0
    1.6484   -0.4802   -0.0051 C   0  0  0  0  0  0  0  0  0  0  0  0
    0.5511   -0.0515    0.7157 N   0  0  0  0  0  0  0  0  0  0  0  0
    3.9315    0.4594   -0.7353 C   0  0  0  0  0  0  0  0  0  0  0  0
    5.1236    0.7154    0.1953 C   0  0  0  0  0  0  0  0  0  0  0  0
    5.7910    1.9624   -0.3602 C   0  0  0  0  0  0  0  0  0  0  0  0
    5.4960    1.9031   -1.7902 N   0  0  0  0  0  0  0  0  0  0  0  0
    4.0883    1.4976   -1.8543 C   0  0  0  0  0  0  0  0  0  0  0  0
   -6.3936   -1.2944    1.2585 H   0  0  0  0  0  0  0  0  0  0  0  0
   -4.3355   -2.6328    1.3793 H   0  0  0  0  0  0  0  0  0  0  0  0
   -2.7850   -0.5548   -2.0607 H   0  0  0  0  0  0  0  0  0  0  0  0
   -4.8261    0.7818   -2.1780 H   0  0  0  0  0  0  0  0  0  0  0  0
   -2.3607   -3.6202   -0.0607 H   0  0  0  0  0  0  0  0  0  0  0  0
   -0.8101   -1.4480   -1.6436 H   0  0  0  0  0  0  0  0  0  0  0  0
   -0.3573   -3.1761   -1.3869 H   0  0  0  0  0  0  0  0  0  0  0  0
   -0.3410   -2.8478    1.0925 H   0  0  0  0  0  0  0  0  0  0  0  0
   -2.4588   -0.4948    2.1733 H   0  0  0  0  0  0  0  0  0  0  0  0
   -1.9097    1.7981    2.8808 H   0  0  0  0  0  0  0  0  0  0  0  0
    2.5303    2.5587    0.9002 H   0  0  0  0  0  0  0  0  0  0  0  0
    1.6719   -1.4721   -0.4332 H   0  0  0  0  0  0  0  0  0  0  0  0
    4.0546   -0.5444   -1.1663 H   0  0  0  0  0  0  0  0  0  0  0  0
    4.8525    0.8384    1.2490 H   0  0  0  0  0  0  0  0  0  0  0  0
    5.8180   -0.1324    0.1328 H   0  0  0  0  0  0  0  0  0  0  0  0
    5.3543    2.8652    0.0832 H   0  0  0  0  0  0  0  0  0  0  0  0
    6.8681    1.9696   -0.1705 H   0  0  0  0  0  0  0  0  0  0  0  0
    5.6230    2.8176   -2.2213 H   0  0  0  0  0  0  0  0  0  0  0  0
    3.4437    2.3725   -1.7056 H   0  0  0  0  0  0  0  0  0  0  0  0
    3.8502    1.0713   -2.8341 H   0  0  0  0  0  0  0  0  0  0  0  0
  1  2  3  0
  2  3  1  0
  3  4  2  0
  4  5  1  0
  5  6  2  0
  6  7  1  0
  7  8  2  0
  6  9  1  0
  9 10  1  0
 10 11  1  0
 11 12  1  0
 12 13  2  0
 13 14  1  0
 14 15  2  0
 15 16  1  0
 16 17  2  0
 17 18  1  0
 18 19  2  0
 19 20  1  0
 18 21  1  0
 21 22  1  0
 22 23  1  0
 23 24  1  0
 24 25  1  0
  8  3  1  0
 11  9  1  0
 20 12  1  0
 25 21  1  0
 20 16  1  0
  4 26  1  0
  5 27  1  0
  7 28  1  0
  8 29  1  0
  9 30  1  0
 10 31  1  0
 10 32  1  0
 11 33  1  0
 13 34  1  0
 14 35  1  0
 17 36  1  0
 19 37  1  0
 21 38  1  0
 22 39  1  0
 22 40  1  0
 23 41  1  0
 23 42  1  0
 24 43  1  0
 25 44  1  0
 25 45  1  0
M  END
$$$$
