
     RDKit          3D

 80 83  0  0  0  0  0  0  0  0999 V2000
    5.9134   -0.4272    2.7548 C   0  0  0  0  0  0  0  0  0  0  0  0
    5.3915    0.6056    1.7644 C   0  0  0  0  0  0  0  0  0  0  0  0
    5.1937    0.0944    0.3136 C   0  0  0  0  0  0  0  0  0  0  0  0
    4.1128   -1.0148    0.2347 C   0  0  0  0  0  0  0  0  0  0  0  0
    2.6991   -0.6345    0.7102 C   0  0  0  0  0  0  0  0  0  0  0  0
    1.9695    0.3645   -0.2374 C   0  0  0  0  0  0  0  0  0  0  0  0
    1.9719    1.7538    0.4073 C   0  0  0  0  0  0  0  0  0  0  0  0
    0.5313   -0.1404   -0.5746 C   0  0  0  0  0  0  0  0  0  0  0  0
    0.5759   -1.5184   -1.2915 C   0  0  0  0  0  0  0  0  0  0  0  0
   -0.5663   -1.5486   -2.3042 C   0  0  0  0  0  0  0  0  0  0  0  0
   -1.4406   -0.3354   -1.9717 C   0  0  0  0  0  0  0  0  0  0  0  0
   -2.5373   -0.7015   -0.9242 C   0  0  0  0  0  0  0  0  0  0  0  0
   -3.6293   -1.5658   -1.5882 C   0  0  0  0  0  0  0  0  0  0  0  0
   -4.8722   -1.7173   -0.7710 C   0  0  0  0  0  0  0  0  0  0  0  0
   -5.1794   -0.9702    0.3036 C   0  0  0  0  0  0  0  0  0  0  0  0
   -6.4564   -1.2526    1.0706 C   0  0  0  0  0  0  0  0  0  0  0  0
   -7.0528   -0.0295    1.7796 C   0  0  0  0  0  0  0  0  0  0  0  0
   -8.4764   -0.1214    1.8070 O   0  0  0  0  0  0  0  0  0  0  0  0
   -6.6640    1.2570    1.0727 C   0  0  0  0  0  0  0  0  0  0  0  0
   -5.1485    1.4617    1.0611 C   0  0  0  0  0  0  0  0  0  0  0  0
   -4.2925    0.1776    0.7904 C   0  0  0  0  0  0  0  0  0  0  0  0
   -3.6478   -0.2903    2.1211 C   0  0  0  0  0  0  0  0  0  0  0  0
   -3.1859    0.5440   -0.2810 C   0  0  0  0  0  0  0  0  0  0  0  0
   -2.1058    1.4905    0.2685 C   0  0  0  0  0  0  0  0  0  0  0  0
   -1.1224    1.9005   -0.8177 C   0  0  0  0  0  0  0  0  0  0  0  0
   -0.3976    0.7206   -1.4946 C   0  0  0  0  0  0  0  0  0  0  0  0
    0.3772    1.2858   -2.7116 C   0  0  0  0  0  0  0  0  0  0  0  0
    6.5325   -0.3775   -0.3502 C   0  0  0  0  0  0  0  0  0  0  0  0
    6.3586   -0.6947   -1.8439 C   0  0  0  0  0  0  0  0  0  0  0  0
    7.6568    0.6597   -0.2157 C   0  0  0  0  0  0  0  0  0  0  0  0
    6.8786   -0.8371    2.4475 H   0  0  0  0  0  0  0  0  0  0  0  0
    6.0512    0.0383    3.7357 H   0  0  0  0  0  0  0  0  0  0  0  0
    5.2094   -1.2546    2.8811 H   0  0  0  0  0  0  0  0  0  0  0  0
    6.0682    1.4673    1.7621 H   0  0  0  0  0  0  0  0  0  0  0  0
    4.4484    1.0002    2.1549 H   0  0  0  0  0  0  0  0  0  0  0  0
    4.8353    0.9498   -0.2743 H   0  0  0  0  0  0  0  0  0  0  0  0
    4.4484   -1.8843    0.8126 H   0  0  0  0  0  0  0  0  0  0  0  0
    4.0122   -1.3709   -0.7951 H   0  0  0  0  0  0  0  0  0  0  0  0
    2.7200   -0.2586    1.7388 H   0  0  0  0  0  0  0  0  0  0  0  0
    2.1365   -1.5728    0.7762 H   0  0  0  0  0  0  0  0  0  0  0  0
    2.5344    0.4339   -1.1760 H   0  0  0  0  0  0  0  0  0  0  0  0
    1.2746    1.8015    1.2499 H   0  0  0  0  0  0  0  0  0  0  0  0
    1.7043    2.5289   -0.3136 H   0  0  0  0  0  0  0  0  0  0  0  0
    2.9640    2.0249    0.7770 H   0  0  0  0  0  0  0  0  0  0  0  0
    0.0225   -0.3011    0.3843 H   0  0  0  0  0  0  0  0  0  0  0  0
    1.5287   -1.6881   -1.8063 H   0  0  0  0  0  0  0  0  0  0  0  0
    0.4497   -2.3267   -0.5613 H   0  0  0  0  0  0  0  0  0  0  0  0
   -0.1573   -1.4472   -3.3164 H   0  0  0  0  0  0  0  0  0  0  0  0
   -1.0940   -2.5039   -2.2854 H   0  0  0  0  0  0  0  0  0  0  0  0
   -1.9413    0.0214   -2.8814 H   0  0  0  0  0  0  0  0  0  0  0  0
   -2.0767   -1.2990   -0.1263 H   0  0  0  0  0  0  0  0  0  0  0  0
   -3.9177   -1.1429   -2.5584 H   0  0  0  0  0  0  0  0  0  0  0  0
   -3.2326   -2.5675   -1.7865 H   0  0  0  0  0  0  0  0  0  0  0  0
   -5.5515   -2.5051   -1.0926 H   0  0  0  0  0  0  0  0  0  0  0  0
   -7.2086   -1.6830    0.3955 H   0  0  0  0  0  0  0  0  0  0  0  0
   -6.2575   -2.0248    1.8248 H   0  0  0  0  0  0  0  0  0  0  0  0
   -6.7114    0.0091    2.8208 H   0  0  0  0  0  0  0  0  0  0  0  0
   -8.7056   -0.9416    2.2755 H   0  0  0  0  0  0  0  0  0  0  0  0
   -7.0454    1.2410    0.0424 H   0  0  0  0  0  0  0  0  0  0  0  0
   -7.1530    2.1174    1.5473 H   0  0  0  0  0  0  0  0  0  0  0  0
   -4.9411    2.2382    0.3144 H   0  0  0  0  0  0  0  0  0  0  0  0
   -4.8527    1.9053    2.0211 H   0  0  0  0  0  0  0  0  0  0  0  0
   -2.9810   -1.1459    1.9709 H   0  0  0  0  0  0  0  0  0  0  0  0
   -3.0677    0.5066    2.5972 H   0  0  0  0  0  0  0  0  0  0  0  0
   -4.4011   -0.5968    2.8552 H   0  0  0  0  0  0  0  0  0  0  0  0
   -3.6949    1.0789   -1.0989 H   0  0  0  0  0  0  0  0  0  0  0  0
   -2.5702    2.3964    0.6749 H   0  0  0  0  0  0  0  0  0  0  0  0
   -1.5551    1.0275    1.0934 H   0  0  0  0  0  0  0  0  0  0  0  0
   -1.6802    2.4612   -1.5813 H   0  0  0  0  0  0  0  0  0  0  0  0
   -0.4147    2.6162   -0.3942 H   0  0  0  0  0  0  0  0  0  0  0  0
   -0.3152    1.6880   -3.4610 H   0  0  0  0  0  0  0  0  0  0  0  0
    1.0447    2.1027   -2.4208 H   0  0  0  0  0  0  0  0  0  0  0  0
    0.9916    0.5284   -3.2085 H   0  0  0  0  0  0  0  0  0  0  0  0
    6.8687   -1.2984    0.1417 H   0  0  0  0  0  0  0  0  0  0  0  0
    5.9029    0.1473   -2.3764 H   0  0  0  0  0  0  0  0  0  0  0  0
    7.3264   -0.9064   -2.3149 H   0  0  0  0  0  0  0  0  0  0  0  0
    5.7371   -1.5809   -2.0000 H   0  0  0  0  0  0  0  0  0  0  0  0
    7.3456    1.6335   -0.6078 H   0  0  0  0  0  0  0  0  0  0  0  0
    7.9650    0.7875    0.8263 H   0  0  0  0  0  0  0  0  0  0  0  0
    8.5492    0.3432   -0.7663 H   0  0  0  0  0  0  0  0  0  0  0  0
  1  2  1  0
  2  3  1  0
  3  4  1  0
  4  5  1  0
  5  6  1  0
  6  7  1  0
  6  8  1  0
  8  9  1  0
  9 10  1  0
 10 11  1  0
 11 12  1  0
 12 13  1  0
 13 14  1  0
 14 15  2  0
 15 16  1  0
 16 17  1  0
 17 18  1  0
 17 19  1  0
 19 20  1  0
 20 21  1  0
 21 22  1  0
 21 23  1  0
 23 24  1  0
 24 25  1  0
 25 26  1  0
 26 27  1  0
  3 28  1  0
 28 29  1  0
 28 30  1  0
 26  8  1  0
 26 11  1  0
 23 12  1  0
 21 15  1  0
  1 31  1  0
  1 32  1  0
  1 33  1  0
  2 34  1  0
  2 35  1  0
  3 36  1  0
  4 37  1  0
  4 38  1  0
  5 39  1  0
  5 40  1  0
  6 41  1  0
  7 42  1  0
  7 43  1  0
  7 44  1  0
  8 45  1  0
  9 46  1  0
  9 47  1  0
 10 48  1  0
 10 49  1  0
 11 50  1  0
 12 51  1  0
 13 52  1  0
 13 53  1  0
 14 54  1  0
 16 55  1  0
 16 56  1  0
 17 57  1  0
 18 58  1  0
 19 59  1  0
 19 60  1  0
 20 61  1  0
 20 62  1  0
 22 63  1  0
 22 64  1  0
 22 65  1  0
 23 66  1  0
 24 67  1  0
 24 68  1  0
 25 69  1  0
 25 70  1  0
 27 71  1  0
 27 72  1  0
 27 73  1  0
 28 74  1  0
 29 75  1  0
 29 76  1  0
 29 77  1  0
 30 78  1  0
 30 79  1  0
 30 80  1  0
M  END
$$$$
