
     RDKit          3D

 46 49  0  0  0  0  0  0  0  0999 V2000
    5.1611   -0.3692    3.7208 C   0  0  0  0  0  0  0  0  0  0  0  0
    5.1711   -0.0806    2.2485 C   0  0  0  0  0  0  0  0  0  0  0  0
    3.9861   -0.1639    1.4972 C   0  0  0  0  0  0  0  0  0  0  0  0
    3.9740    0.0547    0.1047 C   0  0  0  0  0  0  0  0  0  0  0  0
    5.2000    0.3641   -0.5113 C   0  0  0  0  0  0  0  0  0  0  0  0
    6.3855    0.4489    0.2246 C   0  0  0  0  0  0  0  0  0  0  0  0
    6.3717    0.2202    1.5984 C   0  0  0  0  0  0  0  0  0  0  0  0
    2.7230   -0.0484   -0.6802 C   0  0  0  0  0  0  0  0  0  0  0  0
    2.4158    0.8769   -1.6959 C   0  0  0  0  0  0  0  0  0  0  0  0
    1.2396    0.7709   -2.4451 C   0  0  0  0  0  0  0  0  0  0  0  0
    0.3294   -0.2664   -2.2039 C   0  0  0  0  0  0  0  0  0  0  0  0
    0.6136   -1.1870   -1.1873 C   0  0  0  0  0  0  0  0  0  0  0  0
    1.7949   -1.0800   -0.4417 C   0  0  0  0  0  0  0  0  0  0  0  0
   -0.9492   -0.3657   -3.0087 C   0  0  0  0  0  0  0  0  0  0  0  0
   -1.9977    0.4983   -2.4535 N   0  0  0  0  0  0  0  0  0  0  0  0
   -2.8487    0.0898   -1.4602 C   0  0  0  0  0  0  0  0  0  0  0  0
   -3.7373    0.9054   -0.8867 C   0  0  0  0  0  0  0  0  0  0  0  0
   -3.7079    2.2863   -1.4476 C   0  0  0  0  0  0  0  0  0  0  0  0
   -4.4722    3.1430   -1.0008 O   0  0  0  0  0  0  0  0  0  0  0  0
   -2.8205    2.5746   -2.4679 N   0  0  0  0  0  0  0  0  0  0  0  0
   -1.9959    1.7639   -2.9449 N   0  0  0  0  0  0  0  0  0  0  0  0
   -4.6522    0.4476    0.1735 C   0  0  0  0  0  0  0  0  0  0  0  0
   -6.0181    0.7626    0.1210 C   0  0  0  0  0  0  0  0  0  0  0  0
   -6.8927    0.3211    1.1166 C   0  0  0  0  0  0  0  0  0  0  0  0
   -6.4131   -0.4418    2.1799 C   0  0  0  0  0  0  0  0  0  0  0  0
   -5.0574   -0.7559    2.2544 C   0  0  0  0  0  0  0  0  0  0  0  0
   -4.1815   -0.3126    1.2602 C   0  0  0  0  0  0  0  0  0  0  0  0
    4.1618   -0.2260    4.1468 H   0  0  0  0  0  0  0  0  0  0  0  0
    5.8362    0.3067    4.2550 H   0  0  0  0  0  0  0  0  0  0  0  0
    5.4714   -1.4032    3.9020 H   0  0  0  0  0  0  0  0  0  0  0  0
    3.0542   -0.3940    2.0129 H   0  0  0  0  0  0  0  0  0  0  0  0
    5.2483    0.5277   -1.5884 H   0  0  0  0  0  0  0  0  0  0  0  0
    7.3212    0.6834   -0.2783 H   0  0  0  0  0  0  0  0  0  0  0  0
    7.3036    0.2755    2.1589 H   0  0  0  0  0  0  0  0  0  0  0  0
    3.0873    1.7086   -1.9054 H   0  0  0  0  0  0  0  0  0  0  0  0
    1.0310    1.5158   -3.2136 H   0  0  0  0  0  0  0  0  0  0  0  0
   -0.0769   -1.9972   -0.9640 H   0  0  0  0  0  0  0  0  0  0  0  0
    1.9899   -1.8264    0.3274 H   0  0  0  0  0  0  0  0  0  0  0  0
   -1.2949   -1.4063   -3.0421 H   0  0  0  0  0  0  0  0  0  0  0  0
   -0.7465   -0.1008   -4.0552 H   0  0  0  0  0  0  0  0  0  0  0  0
   -2.7447   -0.9538   -1.1768 H   0  0  0  0  0  0  0  0  0  0  0  0
   -6.4204    1.3628   -0.6960 H   0  0  0  0  0  0  0  0  0  0  0  0
   -7.9480    0.5782    1.0598 H   0  0  0  0  0  0  0  0  0  0  0  0
   -7.0924   -0.7863    2.9542 H   0  0  0  0  0  0  0  0  0  0  0  0
   -4.6786   -1.3424    3.0879 H   0  0  0  0  0  0  0  0  0  0  0  0
   -3.1242   -0.5563    1.3508 H   0  0  0  0  0  0  0  0  0  0  0  0
  1  2  1  0
  2  3  2  0
  3  4  1  0
  4  5  2  0
  5  6  1  0
  6  7  2  0
  4  8  1  0
  8  9  2  0
  9 10  1  0
 10 11  2  0
 11 12  1  0
 12 13  2  0
 11 14  1  0
 14 15  1  0
 15 16  1  0
 16 17  2  0
 17 18  1  0
 18 19  2  0
 18 20  1  0
 20 21  2  0
 17 22  1  0
 22 23  2  0
 23 24  1  0
 24 25  2  0
 25 26  1  0
 26 27  2  0
  7  2  1  0
 13  8  1  0
 21 15  1  0
 27 22  1  0
  1 28  1  0
  1 29  1  0
  1 30  1  0
  3 31  1  0
  5 32  1  0
  6 33  1  0
  7 34  1  0
  9 35  1  0
 10 36  1  0
 12 37  1  0
 13 38  1  0
 14 39  1  0
 14 40  1  0
 16 41  1  0
 23 42  1  0
 24 43  1  0
 25 44  1  0
 26 45  1  0
 27 46  1  0
M  END
$$$$
