
     RDKit          3D

 46 49  0  0  0  0  0  0  0  0999 V2000
   -6.9980    0.8399   -1.8087 C   0  0  0  0  0  0  0  0  0  0  0  0
   -5.8404    1.0706   -0.8831 C   0  0  0  0  0  0  0  0  0  0  0  0
   -4.7098    0.2414   -0.9415 C   0  0  0  0  0  0  0  0  0  0  0  0
   -3.6003    0.4523   -0.1036 C   0  0  0  0  0  0  0  0  0  0  0  0
   -3.6481    1.5300    0.7948 C   0  0  0  0  0  0  0  0  0  0  0  0
   -4.7613    2.3710    0.8502 C   0  0  0  0  0  0  0  0  0  0  0  0
   -5.8505    2.1453    0.0109 C   0  0  0  0  0  0  0  0  0  0  0  0
   -2.4222   -0.4284   -0.1684 C   0  0  0  0  0  0  0  0  0  0  0  0
   -1.9266   -1.0599    0.9826 C   0  0  0  0  0  0  0  0  0  0  0  0
   -0.8060   -1.8942    0.9232 C   0  0  0  0  0  0  0  0  0  0  0  0
   -0.1466   -2.1175   -0.2926 C   0  0  0  0  0  0  0  0  0  0  0  0
   -0.6357   -1.4937   -1.4472 C   0  0  0  0  0  0  0  0  0  0  0  0
   -1.7581   -0.6610   -1.3831 C   0  0  0  0  0  0  0  0  0  0  0  0
    1.0690   -3.0172   -0.3546 C   0  0  0  0  0  0  0  0  0  0  0  0
    2.1844   -2.4720    0.4312 N   0  0  0  0  0  0  0  0  0  0  0  0
    2.8653   -1.3397    0.0698 C   0  0  0  0  0  0  0  0  0  0  0  0
    3.8571   -0.8331    0.8018 C   0  0  0  0  0  0  0  0  0  0  0  0
    4.1647   -1.6375    2.0176 C   0  0  0  0  0  0  0  0  0  0  0  0
    5.0928   -1.2987    2.7511 O   0  0  0  0  0  0  0  0  0  0  0  0
    3.3886   -2.7467    2.2921 N   0  0  0  0  0  0  0  0  0  0  0  0
    2.4583   -3.1636    1.5677 N   0  0  0  0  0  0  0  0  0  0  0  0
    4.5829    0.3836    0.4045 C   0  0  0  0  0  0  0  0  0  0  0  0
    5.9842    0.4061    0.3762 C   0  0  0  0  0  0  0  0  0  0  0  0
    6.6718    1.5597   -0.0099 C   0  0  0  0  0  0  0  0  0  0  0  0
    5.9670    2.7056   -0.3709 C   0  0  0  0  0  0  0  0  0  0  0  0
    4.5746    2.7014   -0.3426 C   0  0  0  0  0  0  0  0  0  0  0  0
    3.8863    1.5485    0.0438 C   0  0  0  0  0  0  0  0  0  0  0  0
   -7.1196   -0.2272   -2.0228 H   0  0  0  0  0  0  0  0  0  0  0  0
   -6.8365    1.3743   -2.7499 H   0  0  0  0  0  0  0  0  0  0  0  0
   -7.9339    1.1891   -1.3599 H   0  0  0  0  0  0  0  0  0  0  0  0
   -4.6991   -0.5919   -1.6424 H   0  0  0  0  0  0  0  0  0  0  0  0
   -2.8045    1.7315    1.4518 H   0  0  0  0  0  0  0  0  0  0  0  0
   -4.7756    3.2057    1.5462 H   0  0  0  0  0  0  0  0  0  0  0  0
   -6.7082    2.8123    0.0603 H   0  0  0  0  0  0  0  0  0  0  0  0
   -2.4202   -0.9125    1.9416 H   0  0  0  0  0  0  0  0  0  0  0  0
   -0.4466   -2.3655    1.8365 H   0  0  0  0  0  0  0  0  0  0  0  0
   -0.1479   -1.6437   -2.4079 H   0  0  0  0  0  0  0  0  0  0  0  0
   -2.1080   -0.1791   -2.2944 H   0  0  0  0  0  0  0  0  0  0  0  0
    1.3945   -3.1514   -1.3941 H   0  0  0  0  0  0  0  0  0  0  0  0
    0.7845   -4.0160    0.0025 H   0  0  0  0  0  0  0  0  0  0  0  0
    2.5350   -0.8829   -0.8582 H   0  0  0  0  0  0  0  0  0  0  0  0
    6.5586   -0.4741    0.6599 H   0  0  0  0  0  0  0  0  0  0  0  0
    7.7589    1.5626   -0.0220 H   0  0  0  0  0  0  0  0  0  0  0  0
    6.5036    3.6034   -0.6666 H   0  0  0  0  0  0  0  0  0  0  0  0
    4.0230    3.5977   -0.6148 H   0  0  0  0  0  0  0  0  0  0  0  0
    2.7986    1.5757    0.0722 H   0  0  0  0  0  0  0  0  0  0  0  0
  1  2  1  0
  2  3  2  0
  3  4  1  0
  4  5  2  0
  5  6  1  0
  6  7  2  0
  4  8  1  0
  8  9  2  0
  9 10  1  0
 10 11  2  0
 11 12  1  0
 12 13  2  0
 11 14  1  0
 14 15  1  0
 15 16  1  0
 16 17  2  0
 17 18  1  0
 18 19  2  0
 18 20  1  0
 20 21  2  0
 17 22  1  0
 22 23  2  0
 23 24  1  0
 24 25  2  0
 25 26  1  0
 26 27  2  0
  7  2  1  0
 13  8  1  0
 21 15  1  0
 27 22  1  0
  1 28  1  0
  1 29  1  0
  1 30  1  0
  3 31  1  0
  5 32  1  0
  6 33  1  0
  7 34  1  0
  9 35  1  0
 10 36  1  0
 12 37  1  0
 13 38  1  0
 14 39  1  0
 14 40  1  0
 16 41  1  0
 23 42  1  0
 24 43  1  0
 25 44  1  0
 26 45  1  0
 27 46  1  0
M  END
$$$$
