
     RDKit          3D

 64 67  0  0  0  0  0  0  0  0999 V2000
   -2.4950    5.6935    0.1874 C   0  0  0  0  0  0  0  0  0  0  0  0
   -2.5057    4.2393   -0.1868 C   0  0  0  0  0  0  0  0  0  0  0  0
   -3.1449    3.7915   -1.1297 O   0  0  0  0  0  0  0  0  0  0  0  0
   -1.5107    3.2247    0.8537 S   0  0  0  0  0  0  0  0  0  0  0  0
   -1.8183    1.5712    0.1046 C   0  0  0  0  0  0  0  0  0  0  0  0
   -3.1701    1.0613    0.6193 C   0  0  0  0  0  0  0  0  0  0  0  0
   -3.4923   -0.3222    0.1059 C   0  0  0  0  0  0  0  0  0  0  0  0
   -4.6765   -0.5515   -0.4901 C   0  0  0  0  0  0  0  0  0  0  0  0
   -5.1014   -1.9149   -0.8814 C   0  0  0  0  0  0  0  0  0  0  0  0
   -6.1772   -2.0748   -1.4520 O   0  0  0  0  0  0  0  0  0  0  0  0
   -4.2262   -3.0689   -0.4729 C   0  0  0  0  0  0  0  0  0  0  0  0
   -2.7603   -2.6619   -0.5115 C   0  0  0  0  0  0  0  0  0  0  0  0
   -2.4315   -1.3983    0.3421 C   0  0  0  0  0  0  0  0  0  0  0  0
   -2.4602   -1.7863    1.8380 C   0  0  0  0  0  0  0  0  0  0  0  0
   -1.0181   -0.8520   -0.1046 C   0  0  0  0  0  0  0  0  0  0  0  0
    0.1272   -1.8368    0.2091 C   0  0  0  0  0  0  0  0  0  0  0  0
    1.4683   -1.3546   -0.3368 C   0  0  0  0  0  0  0  0  0  0  0  0
    1.8802    0.0387    0.1920 C   0  0  0  0  0  0  0  0  0  0  0  0
    2.2476   -0.0608    1.6860 C   0  0  0  0  0  0  0  0  0  0  0  0
    0.7241    1.0533   -0.0129 C   0  0  0  0  0  0  0  0  0  0  0  0
    0.8224    1.4430   -1.4980 C   0  0  0  0  0  0  0  0  0  0  0  0
    2.2733    1.1928   -1.9243 C   0  0  0  0  0  0  0  0  0  0  0  0
    3.0148    0.6919   -0.6679 C   0  0  0  0  0  0  0  0  0  0  0  0
    3.5312    1.8438    0.0082 O   0  0  0  0  0  0  0  0  0  0  0  0
    4.1638   -0.2830   -1.0241 C   0  0  0  0  0  0  0  0  0  0  0  0
    4.0994   -1.0249   -2.0078 O   0  0  0  0  0  0  0  0  0  0  0  0
    5.3757   -0.2904   -0.0790 C   0  0  0  0  0  0  0  0  0  0  0  0
    6.3857   -1.2491   -0.3581 O   0  0  0  0  0  0  0  0  0  0  0  0
    6.0085   -2.5688    0.0115 C   0  0  0  0  0  0  0  0  0  0  0  0
   -0.6802    0.5669    0.4523 C   0  0  0  0  0  0  0  0  0  0  0  0
   -2.8894    5.8267    1.1985 H   0  0  0  0  0  0  0  0  0  0  0  0
   -3.1316    6.2497   -0.5072 H   0  0  0  0  0  0  0  0  0  0  0  0
   -1.4799    6.0945    0.1208 H   0  0  0  0  0  0  0  0  0  0  0  0
   -1.8624    1.6792   -0.9853 H   0  0  0  0  0  0  0  0  0  0  0  0
   -3.9689    1.7595    0.3396 H   0  0  0  0  0  0  0  0  0  0  0  0
   -3.1715    1.0249    1.7171 H   0  0  0  0  0  0  0  0  0  0  0  0
   -5.4113    0.2282   -0.6625 H   0  0  0  0  0  0  0  0  0  0  0  0
   -4.5283   -3.4043    0.5242 H   0  0  0  0  0  0  0  0  0  0  0  0
   -4.3889   -3.8941   -1.1749 H   0  0  0  0  0  0  0  0  0  0  0  0
   -2.1586   -3.5183   -0.1855 H   0  0  0  0  0  0  0  0  0  0  0  0
   -2.4901   -2.4742   -1.5602 H   0  0  0  0  0  0  0  0  0  0  0  0
   -2.0922   -0.9812    2.4817 H   0  0  0  0  0  0  0  0  0  0  0  0
   -1.8464   -2.6713    2.0373 H   0  0  0  0  0  0  0  0  0  0  0  0
   -3.4772   -2.0227    2.1725 H   0  0  0  0  0  0  0  0  0  0  0  0
   -1.0595   -0.7558   -1.1995 H   0  0  0  0  0  0  0  0  0  0  0  0
   -0.0761   -2.8149   -0.2390 H   0  0  0  0  0  0  0  0  0  0  0  0
    0.2106   -2.0019    1.2881 H   0  0  0  0  0  0  0  0  0  0  0  0
    2.2371   -2.0947   -0.0809 H   0  0  0  0  0  0  0  0  0  0  0  0
    1.4024   -1.3546   -1.4315 H   0  0  0  0  0  0  0  0  0  0  0  0
    2.5899    0.8974    2.0901 H   0  0  0  0  0  0  0  0  0  0  0  0
    3.0405   -0.7967    1.8494 H   0  0  0  0  0  0  0  0  0  0  0  0
    1.3950   -0.3694    2.2985 H   0  0  0  0  0  0  0  0  0  0  0  0
    0.9756    1.9509    0.5688 H   0  0  0  0  0  0  0  0  0  0  0  0
    0.1533    0.8524   -2.1316 H   0  0  0  0  0  0  0  0  0  0  0  0
    0.5526    2.4949   -1.6431 H   0  0  0  0  0  0  0  0  0  0  0  0
    2.7117    2.1129   -2.3271 H   0  0  0  0  0  0  0  0  0  0  0  0
    2.2793    0.4575   -2.7367 H   0  0  0  0  0  0  0  0  0  0  0  0
    3.9885    2.4056   -0.6435 H   0  0  0  0  0  0  0  0  0  0  0  0
    5.0422   -0.4015    0.9559 H   0  0  0  0  0  0  0  0  0  0  0  0
    5.8540    0.6901   -0.1729 H   0  0  0  0  0  0  0  0  0  0  0  0
    5.1262   -2.9006   -0.5424 H   0  0  0  0  0  0  0  0  0  0  0  0
    6.8379   -3.2403   -0.2266 H   0  0  0  0  0  0  0  0  0  0  0  0
    5.8168   -2.6236    1.0875 H   0  0  0  0  0  0  0  0  0  0  0  0
   -0.6349    0.4832    1.5469 H   0  0  0  0  0  0  0  0  0  0  0  0
  1  2  1  0
  2  3  2  0
  2  4  1  0
  4  5  1  0
  5  6  1  0
  6  7  1  0
  7  8  2  0
  8  9  1  0
  9 10  2  0
  9 11  1  0
 11 12  1  0
 12 13  1  0
 13 14  1  0
 13 15  1  0
 15 16  1  0
 16 17  1  0
 17 18  1  0
 18 19  1  0
 18 20  1  0
 20 21  1  0
 21 22  1  0
 22 23  1  0
 23 24  1  0
 23 25  1  0
 25 26  2  0
 25 27  1  0
 27 28  1  0
 28 29  1  0
 20 30  1  0
 30  5  1  0
 13  7  1  0
 30 15  1  0
 23 18  1  0
  1 31  1  0
  1 32  1  0
  1 33  1  0
  5 34  1  0
  6 35  1  0
  6 36  1  0
  8 37  1  0
 11 38  1  0
 11 39  1  0
 12 40  1  0
 12 41  1  0
 14 42  1  0
 14 43  1  0
 14 44  1  0
 15 45  1  0
 16 46  1  0
 16 47  1  0
 17 48  1  0
 17 49  1  0
 19 50  1  0
 19 51  1  0
 19 52  1  0
 20 53  1  0
 21 54  1  0
 21 55  1  0
 22 56  1  0
 22 57  1  0
 24 58  1  0
 27 59  1  0
 27 60  1  0
 29 61  1  0
 29 62  1  0
 29 63  1  0
 30 64  1  0
M  END
$$$$
