
     RDKit          3D

 64 67  0  0  0  0  0  0  0  0999 V2000
   -2.9576    4.4121   -2.0838 C   0  0  0  0  0  0  0  0  0  0  0  0
   -2.8534    3.5309   -0.8740 C   0  0  0  0  0  0  0  0  0  0  0  0
   -3.4403    3.7561    0.1769 O   0  0  0  0  0  0  0  0  0  0  0  0
   -1.8277    2.1200   -1.1025 S   0  0  0  0  0  0  0  0  0  0  0  0
   -2.0350    1.2794    0.5268 C   0  0  0  0  0  0  0  0  0  0  0  0
   -3.4161    0.5872    0.6077 C   0  0  0  0  0  0  0  0  0  0  0  0
   -3.4498   -0.6434   -0.2724 C   0  0  0  0  0  0  0  0  0  0  0  0
   -4.2609   -0.6870   -1.3461 C   0  0  0  0  0  0  0  0  0  0  0  0
   -4.1082   -1.7397   -2.3805 C   0  0  0  0  0  0  0  0  0  0  0  0
   -4.9213   -1.8145   -3.2984 O   0  0  0  0  0  0  0  0  0  0  0  0
   -2.8788   -2.6064   -2.3117 C   0  0  0  0  0  0  0  0  0  0  0  0
   -2.6075   -2.9650   -0.8616 C   0  0  0  0  0  0  0  0  0  0  0  0
   -2.4185   -1.7256    0.0658 C   0  0  0  0  0  0  0  0  0  0  0  0
   -2.6555   -2.2638    1.5015 C   0  0  0  0  0  0  0  0  0  0  0  0
   -1.0025   -1.0475   -0.0758 C   0  0  0  0  0  0  0  0  0  0  0  0
    0.1824   -2.0254    0.1424 C   0  0  0  0  0  0  0  0  0  0  0  0
    1.5630   -1.3443    0.1359 C   0  0  0  0  0  0  0  0  0  0  0  0
    1.6247   -0.1721    1.1277 C   0  0  0  0  0  0  0  0  0  0  0  0
    1.4557   -0.7371    2.5708 C   0  0  0  0  0  0  0  0  0  0  0  0
    0.5252    0.8339    0.7238 C   0  0  0  0  0  0  0  0  0  0  0  0
    0.8568    2.0674    1.5599 C   0  0  0  0  0  0  0  0  0  0  0  0
    2.3955    2.0633    1.6883 C   0  0  0  0  0  0  0  0  0  0  0  0
    2.8995    0.7312    1.0712 C   0  0  0  0  0  0  0  0  0  0  0  0
    3.9097    0.1950    1.9216 O   0  0  0  0  0  0  0  0  0  0  0  0
    3.4231    0.9869   -0.3788 C   0  0  0  0  0  0  0  0  0  0  0  0
    2.8872    1.7952   -1.1454 O   0  0  0  0  0  0  0  0  0  0  0  0
    4.5993    0.1445   -0.8601 C   0  0  0  0  0  0  0  0  0  0  0  0
    5.7189    0.3285    0.0055 O   0  0  0  0  0  0  0  0  0  0  0  0
    6.8439   -0.4291   -0.4278 C   0  0  0  0  0  0  0  0  0  0  0  0
   -0.8957    0.2509    0.8182 C   0  0  0  0  0  0  0  0  0  0  0  0
   -3.5661    5.2879   -1.8406 H   0  0  0  0  0  0  0  0  0  0  0  0
   -3.4451    3.8769   -2.9039 H   0  0  0  0  0  0  0  0  0  0  0  0
   -1.9687    4.7560   -2.3961 H   0  0  0  0  0  0  0  0  0  0  0  0
   -1.9920    2.0490    1.3088 H   0  0  0  0  0  0  0  0  0  0  0  0
   -4.2177    1.2857    0.3350 H   0  0  0  0  0  0  0  0  0  0  0  0
   -3.6179    0.2954    1.6435 H   0  0  0  0  0  0  0  0  0  0  0  0
   -4.9786    0.0930   -1.5846 H   0  0  0  0  0  0  0  0  0  0  0  0
   -3.0618   -3.5185   -2.8882 H   0  0  0  0  0  0  0  0  0  0  0  0
   -2.0373   -2.0757   -2.7663 H   0  0  0  0  0  0  0  0  0  0  0  0
   -1.7547   -3.6476   -0.8004 H   0  0  0  0  0  0  0  0  0  0  0  0
   -3.4718   -3.5499   -0.5059 H   0  0  0  0  0  0  0  0  0  0  0  0
   -3.7001   -2.5690    1.6465 H   0  0  0  0  0  0  0  0  0  0  0  0
   -2.0405   -3.1502    1.6921 H   0  0  0  0  0  0  0  0  0  0  0  0
   -2.4161   -1.5495    2.2902 H   0  0  0  0  0  0  0  0  0  0  0  0
   -0.9006   -0.7188   -1.1224 H   0  0  0  0  0  0  0  0  0  0  0  0
    0.1899   -2.7806   -0.6535 H   0  0  0  0  0  0  0  0  0  0  0  0
    0.0560   -2.5774    1.0791 H   0  0  0  0  0  0  0  0  0  0  0  0
    1.7559   -0.9947   -0.8849 H   0  0  0  0  0  0  0  0  0  0  0  0
    2.3386   -2.0836    0.3671 H   0  0  0  0  0  0  0  0  0  0  0  0
    0.4900   -1.2231    2.7336 H   0  0  0  0  0  0  0  0  0  0  0  0
    1.5476    0.0359    3.3387 H   0  0  0  0  0  0  0  0  0  0  0  0
    2.2246   -1.4910    2.7782 H   0  0  0  0  0  0  0  0  0  0  0  0
    0.6823    1.1064   -0.3258 H   0  0  0  0  0  0  0  0  0  0  0  0
    0.3956    2.0135    2.5522 H   0  0  0  0  0  0  0  0  0  0  0  0
    0.5037    2.9890    1.0874 H   0  0  0  0  0  0  0  0  0  0  0  0
    2.6762    2.1414    2.7445 H   0  0  0  0  0  0  0  0  0  0  0  0
    2.8258    2.9380    1.1891 H   0  0  0  0  0  0  0  0  0  0  0  0
    4.7772    0.5270    1.6131 H   0  0  0  0  0  0  0  0  0  0  0  0
    4.2981   -0.9086   -0.8761 H   0  0  0  0  0  0  0  0  0  0  0  0
    4.8640    0.4632   -1.8748 H   0  0  0  0  0  0  0  0  0  0  0  0
    7.6279   -0.3456    0.3324 H   0  0  0  0  0  0  0  0  0  0  0  0
    6.5756   -1.4855   -0.5462 H   0  0  0  0  0  0  0  0  0  0  0  0
    7.2296   -0.0309   -1.3727 H   0  0  0  0  0  0  0  0  0  0  0  0
   -1.0458   -0.0397    1.8636 H   0  0  0  0  0  0  0  0  0  0  0  0
  1  2  1  0
  2  3  2  0
  2  4  1  0
  4  5  1  0
  5  6  1  0
  6  7  1  0
  7  8  2  0
  8  9  1  0
  9 10  2  0
  9 11  1  0
 11 12  1  0
 12 13  1  0
 13 14  1  0
 13 15  1  0
 15 16  1  0
 16 17  1  0
 17 18  1  0
 18 19  1  0
 18 20  1  0
 20 21  1  0
 21 22  1  0
 22 23  1  0
 23 24  1  0
 23 25  1  0
 25 26  2  0
 25 27  1  0
 27 28  1  0
 28 29  1  0
 20 30  1  0
 30  5  1  0
 13  7  1  0
 30 15  1  0
 23 18  1  0
  1 31  1  0
  1 32  1  0
  1 33  1  0
  5 34  1  0
  6 35  1  0
  6 36  1  0
  8 37  1  0
 11 38  1  0
 11 39  1  0
 12 40  1  0
 12 41  1  0
 14 42  1  0
 14 43  1  0
 14 44  1  0
 15 45  1  0
 16 46  1  0
 16 47  1  0
 17 48  1  0
 17 49  1  0
 19 50  1  0
 19 51  1  0
 19 52  1  0
 20 53  1  0
 21 54  1  0
 21 55  1  0
 22 56  1  0
 22 57  1  0
 24 58  1  0
 27 59  1  0
 27 60  1  0
 29 61  1  0
 29 62  1  0
 29 63  1  0
 30 64  1  0
M  END
$$$$
