
     RDKit          3D

 29 30  0  0  0  0  0  0  0  0999 V2000
   -3.3333    2.3346    0.2880 N   0  0  0  0  0  0  0  0  0  0  0  0
   -2.6689    1.1331    0.0328 C   0  0  0  0  0  0  0  0  0  0  0  0
   -3.3495    0.0559   -0.4736 C   0  0  0  0  0  0  0  0  0  0  0  0
   -2.6103   -1.0832   -0.6739 C   0  0  0  0  0  0  0  0  0  0  0  0
   -3.2210   -2.2421   -1.1749 N   0  0  0  0  0  0  0  0  0  0  0  0
   -1.3092   -1.1465   -0.3822 N   0  0  0  0  0  0  0  0  0  0  0  0
   -0.7073   -0.0585    0.1246 C   0  0  0  0  0  0  0  0  0  0  0  0
   -1.3704    1.0914    0.3366 N   0  0  0  0  0  0  0  0  0  0  0  0
    0.6532   -0.1293    0.4669 N   0  0  0  0  0  0  0  0  0  0  0  0
    1.3601   -1.2316   -0.1914 C   0  0  0  0  0  0  0  0  0  0  0  0
    2.7770   -1.3659    0.3672 C   0  0  0  0  0  0  0  0  0  0  0  0
    3.5305   -0.0431    0.3022 C   0  0  0  0  0  0  0  0  0  0  0  0
    2.7413    1.0448    1.0204 C   0  0  0  0  0  0  0  0  0  0  0  0
    1.3245    1.1716    0.4602 C   0  0  0  0  0  0  0  0  0  0  0  0
   -2.6362    2.9925    0.6302 H   0  0  0  0  0  0  0  0  0  0  0  0
   -3.8088    2.6865   -0.5345 H   0  0  0  0  0  0  0  0  0  0  0  0
   -4.4067    0.1047   -0.6872 H   0  0  0  0  0  0  0  0  0  0  0  0
   -3.9336   -2.5566   -0.5226 H   0  0  0  0  0  0  0  0  0  0  0  0
   -3.6687   -2.0446   -2.0640 H   0  0  0  0  0  0  0  0  0  0  0  0
    1.4068   -1.0597   -1.2749 H   0  0  0  0  0  0  0  0  0  0  0  0
    0.8561   -2.1912   -0.0206 H   0  0  0  0  0  0  0  0  0  0  0  0
    3.3237   -2.1338   -0.1915 H   0  0  0  0  0  0  0  0  0  0  0  0
    2.7269   -1.7018    1.4108 H   0  0  0  0  0  0  0  0  0  0  0  0
    4.5181   -0.1534    0.7633 H   0  0  0  0  0  0  0  0  0  0  0  0
    3.6904    0.2429   -0.7443 H   0  0  0  0  0  0  0  0  0  0  0  0
    2.6901    0.8067    2.0905 H   0  0  0  0  0  0  0  0  0  0  0  0
    3.2624    2.0044    0.9294 H   0  0  0  0  0  0  0  0  0  0  0  0
    1.3670    1.5710   -0.5617 H   0  0  0  0  0  0  0  0  0  0  0  0
    0.7960    1.9010    1.0865 H   0  0  0  0  0  0  0  0  0  0  0  0
  1  2  1  0
  2  3  2  0
  3  4  1  0
  4  5  1  0
  4  6  2  0
  6  7  1  0
  7  8  2  0
  7  9  1  0
  9 10  1  0
 10 11  1  0
 11 12  1  0
 12 13  1  0
 13 14  1  0
  8  2  1  0
 14  9  1  0
  1 15  1  0
  1 16  1  0
  3 17  1  0
  5 18  1  0
  5 19  1  0
 10 20  1  0
 10 21  1  0
 11 22  1  0
 11 23  1  0
 12 24  1  0
 12 25  1  0
 13 26  1  0
 13 27  1  0
 14 28  1  0
 14 29  1  0
M  END
$$$$
