
     RDKit          3D

 49 52  0  0  0  0  0  0  0  0999 V2000
   -2.2205   -0.4737   -1.7118 C   0  0  0  0  0  0  0  0  0  0  0  0
   -2.3171   -0.6057   -0.1709 C   0  0  0  0  0  0  0  0  0  0  0  0
   -1.5968   -1.8892    0.3026 C   0  0  0  0  0  0  0  0  0  0  0  0
   -0.1574   -1.6491    0.8213 C   0  0  0  0  0  0  0  0  0  0  0  0
    0.5173   -0.4372    0.1507 C   0  0  0  0  0  0  0  0  0  0  0  0
   -0.2676    0.8621    0.4961 C   0  0  0  0  0  0  0  0  0  0  0  0
    0.1821    1.9818   -0.4412 C   0  0  0  0  0  0  0  0  0  0  0  0
    1.6847    2.2306   -0.2721 C   0  0  0  0  0  0  0  0  0  0  0  0
    2.5285    0.9760   -0.3933 C   0  0  0  0  0  0  0  0  0  0  0  0
    3.6360    1.0017   -1.1566 C   0  0  0  0  0  0  0  0  0  0  0  0
    4.5547   -0.1558   -1.2494 C   0  0  0  0  0  0  0  0  0  0  0  0
    5.5461   -0.0827   -1.9716 O   0  0  0  0  0  0  0  0  0  0  0  0
    4.2784   -1.3547   -0.3822 C   0  0  0  0  0  0  0  0  0  0  0  0
    2.7812   -1.5375   -0.1769 C   0  0  0  0  0  0  0  0  0  0  0  0
    2.0622   -0.2719    0.3784 C   0  0  0  0  0  0  0  0  0  0  0  0
    2.4199   -0.1129    1.8711 C   0  0  0  0  0  0  0  0  0  0  0  0
   -1.7773    0.6034    0.6124 C   0  0  0  0  0  0  0  0  0  0  0  0
   -2.7828    1.7155    0.3287 C   0  0  0  0  0  0  0  0  0  0  0  0
   -4.1310    0.9786    0.2287 C   0  0  0  0  0  0  0  0  0  0  0  0
   -3.8024   -0.5272    0.2586 C   0  0  0  0  0  0  0  0  0  0  0  0
   -4.6626   -1.2707   -0.5827 O   0  0  0  0  0  0  0  0  0  0  0  0
   -2.7706    0.3932   -2.0915 H   0  0  0  0  0  0  0  0  0  0  0  0
   -2.6441   -1.3579   -2.2026 H   0  0  0  0  0  0  0  0  0  0  0  0
   -1.1976   -0.3756   -2.0751 H   0  0  0  0  0  0  0  0  0  0  0  0
   -1.5605   -2.6196   -0.5156 H   0  0  0  0  0  0  0  0  0  0  0  0
   -2.1628   -2.3799    1.1042 H   0  0  0  0  0  0  0  0  0  0  0  0
    0.4145   -2.5685    0.6627 H   0  0  0  0  0  0  0  0  0  0  0  0
   -0.1942   -1.4913    1.9066 H   0  0  0  0  0  0  0  0  0  0  0  0
    0.4215   -0.6082   -0.9283 H   0  0  0  0  0  0  0  0  0  0  0  0
    0.0236    1.1849    1.5049 H   0  0  0  0  0  0  0  0  0  0  0  0
   -0.0426    1.7284   -1.4838 H   0  0  0  0  0  0  0  0  0  0  0  0
   -0.3481    2.9129   -0.2122 H   0  0  0  0  0  0  0  0  0  0  0  0
    1.8649    2.6696    0.7176 H   0  0  0  0  0  0  0  0  0  0  0  0
    1.9949    2.9873   -1.0033 H   0  0  0  0  0  0  0  0  0  0  0  0
    3.9482    1.8813   -1.7093 H   0  0  0  0  0  0  0  0  0  0  0  0
    4.8067   -1.2294    0.5679 H   0  0  0  0  0  0  0  0  0  0  0  0
    4.6819   -2.2431   -0.8808 H   0  0  0  0  0  0  0  0  0  0  0  0
    2.6264   -2.3937    0.4904 H   0  0  0  0  0  0  0  0  0  0  0  0
    2.3397   -1.8147   -1.1446 H   0  0  0  0  0  0  0  0  0  0  0  0
    3.4981    0.0212    2.0136 H   0  0  0  0  0  0  0  0  0  0  0  0
    1.9397    0.7558    2.3306 H   0  0  0  0  0  0  0  0  0  0  0  0
    2.1239   -0.9965    2.4466 H   0  0  0  0  0  0  0  0  0  0  0  0
   -1.9217    0.3612    1.6812 H   0  0  0  0  0  0  0  0  0  0  0  0
   -2.5746    2.2277   -0.6164 H   0  0  0  0  0  0  0  0  0  0  0  0
   -2.7935    2.4693    1.1223 H   0  0  0  0  0  0  0  0  0  0  0  0
   -4.7800    1.2380    1.0726 H   0  0  0  0  0  0  0  0  0  0  0  0
   -4.6659    1.2656   -0.6836 H   0  0  0  0  0  0  0  0  0  0  0  0
   -3.9280   -0.9024    1.2823 H   0  0  0  0  0  0  0  0  0  0  0  0
   -5.5753   -1.0967   -0.2959 H   0  0  0  0  0  0  0  0  0  0  0  0
  1  2  1  0
  2  3  1  0
  3  4  1  0
  4  5  1  0
  5  6  1  0
  6  7  1  0
  7  8  1  0
  8  9  1  0
  9 10  2  0
 10 11  1  0
 11 12  2  0
 11 13  1  0
 13 14  1  0
 14 15  1  0
 15 16  1  0
  6 17  1  0
 17 18  1  0
 18 19  1  0
 19 20  1  0
 20 21  1  0
 17  2  1  0
 20  2  1  0
 15  5  1  0
 15  9  1  0
  1 22  1  0
  1 23  1  0
  1 24  1  0
  3 25  1  0
  3 26  1  0
  4 27  1  0
  4 28  1  0
  5 29  1  0
  6 30  1  0
  7 31  1  0
  7 32  1  0
  8 33  1  0
  8 34  1  0
 10 35  1  0
 13 36  1  0
 13 37  1  0
 14 38  1  0
 14 39  1  0
 16 40  1  0
 16 41  1  0
 16 42  1  0
 17 43  1  0
 18 44  1  0
 18 45  1  0
 19 46  1  0
 19 47  1  0
 20 48  1  0
 21 49  1  0
M  END
$$$$
