
     RDKit          3D

 49 52  0  0  0  0  0  0  0  0999 V2000
   -3.6621    1.6278   -0.1664 C   0  0  0  0  0  0  0  0  0  0  0  0
   -2.4608    0.7097    0.1832 C   0  0  0  0  0  0  0  0  0  0  0  0
   -1.5519    1.5146    1.1214 C   0  0  0  0  0  0  0  0  0  0  0  0
   -0.1603    0.9299    1.3132 C   0  0  0  0  0  0  0  0  0  0  0  0
    0.5645    0.6930   -0.0253 C   0  0  0  0  0  0  0  0  0  0  0  0
   -0.2644   -0.2350   -0.9564 C   0  0  0  0  0  0  0  0  0  0  0  0
   -0.0072   -1.6960   -0.5622 C   0  0  0  0  0  0  0  0  0  0  0  0
    1.4496   -2.0904   -0.8291 C   0  0  0  0  0  0  0  0  0  0  0  0
    2.4227   -0.9341   -0.7852 C   0  0  0  0  0  0  0  0  0  0  0  0
    3.5385   -0.9811   -1.5359 C   0  0  0  0  0  0  0  0  0  0  0  0
    4.5905    0.0585   -1.4408 C   0  0  0  0  0  0  0  0  0  0  0  0
    5.5810   -0.0172   -2.1637 O   0  0  0  0  0  0  0  0  0  0  0  0
    4.4388    1.1286   -0.3908 C   0  0  0  0  0  0  0  0  0  0  0  0
    2.9679    1.4630   -0.1909 C   0  0  0  0  0  0  0  0  0  0  0  0
    2.0792    0.2277    0.1483 C   0  0  0  0  0  0  0  0  0  0  0  0
    2.4260   -0.2512    1.5796 C   0  0  0  0  0  0  0  0  0  0  0  0
   -1.7429    0.2368   -1.1025 C   0  0  0  0  0  0  0  0  0  0  0  0
   -2.6940   -0.8390   -1.6525 C   0  0  0  0  0  0  0  0  0  0  0  0
   -3.3601   -1.4799   -0.4291 C   0  0  0  0  0  0  0  0  0  0  0  0
   -2.9471   -0.6284    0.7790 C   0  0  0  0  0  0  0  0  0  0  0  0
   -4.0025   -0.4863    1.7142 O   0  0  0  0  0  0  0  0  0  0  0  0
   -4.1498    2.0018    0.7413 H   0  0  0  0  0  0  0  0  0  0  0  0
   -4.4269    1.1163   -0.7590 H   0  0  0  0  0  0  0  0  0  0  0  0
   -3.3315    2.4999   -0.7424 H   0  0  0  0  0  0  0  0  0  0  0  0
   -1.4293    2.5317    0.7241 H   0  0  0  0  0  0  0  0  0  0  0  0
   -2.0310    1.6275    2.1022 H   0  0  0  0  0  0  0  0  0  0  0  0
   -0.2386    0.0043    1.8917 H   0  0  0  0  0  0  0  0  0  0  0  0
    0.4143    1.6386    1.9217 H   0  0  0  0  0  0  0  0  0  0  0  0
    0.5665    1.6694   -0.5322 H   0  0  0  0  0  0  0  0  0  0  0  0
    0.1474   -0.1266   -1.9725 H   0  0  0  0  0  0  0  0  0  0  0  0
   -0.2275   -1.8573    0.4978 H   0  0  0  0  0  0  0  0  0  0  0  0
   -0.6403   -2.3959   -1.1137 H   0  0  0  0  0  0  0  0  0  0  0  0
    1.7507   -2.8491   -0.0962 H   0  0  0  0  0  0  0  0  0  0  0  0
    1.4986   -2.5718   -1.8149 H   0  0  0  0  0  0  0  0  0  0  0  0
    3.7637   -1.8072   -2.2019 H   0  0  0  0  0  0  0  0  0  0  0  0
    4.9112    0.7863    0.5348 H   0  0  0  0  0  0  0  0  0  0  0  0
    4.9673    2.0259   -0.7315 H   0  0  0  0  0  0  0  0  0  0  0  0
    2.8685    2.2270    0.5904 H   0  0  0  0  0  0  0  0  0  0  0  0
    2.6114    1.9249   -1.1229 H   0  0  0  0  0  0  0  0  0  0  0  0
    3.4477   -0.6448    1.6403 H   0  0  0  0  0  0  0  0  0  0  0  0
    1.7641   -1.0588    1.9111 H   0  0  0  0  0  0  0  0  0  0  0  0
    2.3611    0.5635    2.3084 H   0  0  0  0  0  0  0  0  0  0  0  0
   -1.7151    1.0735   -1.8154 H   0  0  0  0  0  0  0  0  0  0  0  0
   -3.4683   -0.3626   -2.2673 H   0  0  0  0  0  0  0  0  0  0  0  0
   -2.2090   -1.5698   -2.3055 H   0  0  0  0  0  0  0  0  0  0  0  0
   -4.4473   -1.5249   -0.5579 H   0  0  0  0  0  0  0  0  0  0  0  0
   -3.0171   -2.5118   -0.2951 H   0  0  0  0  0  0  0  0  0  0  0  0
   -2.1385   -1.1361    1.3108 H   0  0  0  0  0  0  0  0  0  0  0  0
   -4.8077   -0.2251    1.2369 H   0  0  0  0  0  0  0  0  0  0  0  0
  1  2  1  0
  2  3  1  0
  3  4  1  0
  4  5  1  0
  5  6  1  0
  6  7  1  0
  7  8  1  0
  8  9  1  0
  9 10  2  0
 10 11  1  0
 11 12  2  0
 11 13  1  0
 13 14  1  0
 14 15  1  0
 15 16  1  0
  6 17  1  0
 17 18  1  0
 18 19  1  0
 19 20  1  0
 20 21  1  0
 17  2  1  0
 20  2  1  0
 15  5  1  0
 15  9  1  0
  1 22  1  0
  1 23  1  0
  1 24  1  0
  3 25  1  0
  3 26  1  0
  4 27  1  0
  4 28  1  0
  5 29  1  0
  6 30  1  0
  7 31  1  0
  7 32  1  0
  8 33  1  0
  8 34  1  0
 10 35  1  0
 13 36  1  0
 13 37  1  0
 14 38  1  0
 14 39  1  0
 16 40  1  0
 16 41  1  0
 16 42  1  0
 17 43  1  0
 18 44  1  0
 18 45  1  0
 19 46  1  0
 19 47  1  0
 20 48  1  0
 21 49  1  0
M  END
$$$$
