
     RDKit          3D

 49 52  0  0  0  0  0  0  0  0999 V2000
    2.3916    2.0227   -1.2373 C   0  0  0  0  0  0  0  0  0  0  0  0
    2.3549    0.7916   -0.3016 C   0  0  0  0  0  0  0  0  0  0  0  0
    1.8251    1.2167    1.0816 C   0  0  0  0  0  0  0  0  0  0  0  0
    0.3124    1.3952    1.0683 C   0  0  0  0  0  0  0  0  0  0  0  0
   -0.4170    0.0606    0.8275 C   0  0  0  0  0  0  0  0  0  0  0  0
    0.4471   -0.9685    0.0297 C   0  0  0  0  0  0  0  0  0  0  0  0
   -0.4098   -2.0485   -0.6656 C   0  0  0  0  0  0  0  0  0  0  0  0
   -1.6893   -2.3643    0.0971 C   0  0  0  0  0  0  0  0  0  0  0  0
   -2.5653   -1.1534    0.3066 C   0  0  0  0  0  0  0  0  0  0  0  0
   -3.8793   -1.3262    0.5385 C   0  0  0  0  0  0  0  0  0  0  0  0
   -4.7791   -0.1878    0.8373 C   0  0  0  0  0  0  0  0  0  0  0  0
   -5.9888   -0.3873    0.9270 O   0  0  0  0  0  0  0  0  0  0  0  0
   -4.1837    1.1899    0.9904 C   0  0  0  0  0  0  0  0  0  0  0  0
   -2.6888    1.1364    1.2943 C   0  0  0  0  0  0  0  0  0  0  0  0
   -1.8935    0.2218    0.3191 C   0  0  0  0  0  0  0  0  0  0  0  0
   -1.9564    0.8373   -1.0989 C   0  0  0  0  0  0  0  0  0  0  0  0
    1.4681   -0.3233   -0.9515 C   0  0  0  0  0  0  0  0  0  0  0  0
    2.4897   -1.3420   -1.4898 C   0  0  0  0  0  0  0  0  0  0  0  0
    3.6227   -1.2946   -0.4825 C   0  0  0  0  0  0  0  0  0  0  0  0
    3.7948    0.1972   -0.2437 C   0  0  0  0  0  0  0  0  0  0  0  0
    4.4575    0.4432    0.9833 O   0  0  0  0  0  0  0  0  0  0  0  0
    3.0410    2.8056   -0.8298 H   0  0  0  0  0  0  0  0  0  0  0  0
    2.7753    1.7559   -2.2291 H   0  0  0  0  0  0  0  0  0  0  0  0
    1.3971    2.4544   -1.3862 H   0  0  0  0  0  0  0  0  0  0  0  0
    2.0798    0.4674    1.8423 H   0  0  0  0  0  0  0  0  0  0  0  0
    2.3008    2.1527    1.3998 H   0  0  0  0  0  0  0  0  0  0  0  0
    0.0352    2.1439    0.3220 H   0  0  0  0  0  0  0  0  0  0  0  0
   -0.0004    1.8054    2.0368 H   0  0  0  0  0  0  0  0  0  0  0  0
   -0.5056   -0.3887    1.8318 H   0  0  0  0  0  0  0  0  0  0  0  0
    1.0355   -1.5022    0.7917 H   0  0  0  0  0  0  0  0  0  0  0  0
    0.1712   -2.9744   -0.7542 H   0  0  0  0  0  0  0  0  0  0  0  0
   -0.6580   -1.7523   -1.6911 H   0  0  0  0  0  0  0  0  0  0  0  0
   -2.2388   -3.1453   -0.4429 H   0  0  0  0  0  0  0  0  0  0  0  0
   -1.4235   -2.7776    1.0786 H   0  0  0  0  0  0  0  0  0  0  0  0
   -4.3508   -2.3031    0.5388 H   0  0  0  0  0  0  0  0  0  0  0  0
   -4.3814    1.7548    0.0738 H   0  0  0  0  0  0  0  0  0  0  0  0
   -4.6959    1.6956    1.8166 H   0  0  0  0  0  0  0  0  0  0  0  0
   -2.5569    0.7725    2.3231 H   0  0  0  0  0  0  0  0  0  0  0  0
   -2.2975    2.1607    1.2758 H   0  0  0  0  0  0  0  0  0  0  0  0
   -1.6344    1.8836   -1.0975 H   0  0  0  0  0  0  0  0  0  0  0  0
   -2.9737    0.8177   -1.5066 H   0  0  0  0  0  0  0  0  0  0  0  0
   -1.3328    0.3082   -1.8212 H   0  0  0  0  0  0  0  0  0  0  0  0
    0.9072    0.0822   -1.8019 H   0  0  0  0  0  0  0  0  0  0  0  0
    2.8544   -1.0107   -2.4706 H   0  0  0  0  0  0  0  0  0  0  0  0
    2.0993   -2.3538   -1.6153 H   0  0  0  0  0  0  0  0  0  0  0  0
    4.5393   -1.7522   -0.8679 H   0  0  0  0  0  0  0  0  0  0  0  0
    3.3645   -1.8180    0.4452 H   0  0  0  0  0  0  0  0  0  0  0  0
    4.4207    0.6146   -1.0424 H   0  0  0  0  0  0  0  0  0  0  0  0
    5.3155   -0.0136    0.9504 H   0  0  0  0  0  0  0  0  0  0  0  0
  1  2  1  0
  2  3  1  0
  3  4  1  0
  4  5  1  0
  5  6  1  0
  6  7  1  0
  7  8  1  0
  8  9  1  0
  9 10  2  0
 10 11  1  0
 11 12  2  0
 11 13  1  0
 13 14  1  0
 14 15  1  0
 15 16  1  0
  6 17  1  0
 17 18  1  0
 18 19  1  0
 19 20  1  0
 20 21  1  0
 17  2  1  0
 20  2  1  0
 15  5  1  0
 15  9  1  0
  1 22  1  0
  1 23  1  0
  1 24  1  0
  3 25  1  0
  3 26  1  0
  4 27  1  0
  4 28  1  0
  5 29  1  0
  6 30  1  0
  7 31  1  0
  7 32  1  0
  8 33  1  0
  8 34  1  0
 10 35  1  0
 13 36  1  0
 13 37  1  0
 14 38  1  0
 14 39  1  0
 16 40  1  0
 16 41  1  0
 16 42  1  0
 17 43  1  0
 18 44  1  0
 18 45  1  0
 19 46  1  0
 19 47  1  0
 20 48  1  0
 21 49  1  0
M  END
$$$$
