
     RDKit          3D

 49 52  0  0  0  0  0  0  0  0999 V2000
    2.6883   -0.8496   -1.3574 C   0  0  0  0  0  0  0  0  0  0  0  0
    2.4578   -0.3719    0.0838 C   0  0  0  0  0  0  0  0  0  0  0  0
    1.6028   -1.3978    0.8568 C   0  0  0  0  0  0  0  0  0  0  0  0
    0.1315   -1.4003    0.4483 C   0  0  0  0  0  0  0  0  0  0  0  0
   -0.5340   -0.0120    0.5828 C   0  0  0  0  0  0  0  0  0  0  0  0
    0.2960    1.1001   -0.1180 C   0  0  0  0  0  0  0  0  0  0  0  0
   -0.0351    1.2714   -1.6206 C   0  0  0  0  0  0  0  0  0  0  0  0
   -0.9702    0.2309   -2.2338 C   0  0  0  0  0  0  0  0  0  0  0  0
   -2.1526   -0.1554   -1.3817 C   0  0  0  0  0  0  0  0  0  0  0  0
   -3.2384   -0.7000   -1.9612 C   0  0  0  0  0  0  0  0  0  0  0  0
   -4.4017   -1.1705   -1.1693 C   0  0  0  0  0  0  0  0  0  0  0  0
   -5.4142   -1.5446   -1.7579 O   0  0  0  0  0  0  0  0  0  0  0  0
   -4.3181   -1.1499    0.3394 C   0  0  0  0  0  0  0  0  0  0  0  0
   -2.8718   -1.0796    0.8259 C   0  0  0  0  0  0  0  0  0  0  0  0
   -2.0409    0.0307    0.1252 C   0  0  0  0  0  0  0  0  0  0  0  0
   -2.6542    1.4082    0.5004 C   0  0  0  0  0  0  0  0  0  0  0  0
    1.8173    1.0290    0.1489 C   0  0  0  0  0  0  0  0  0  0  0  0
    2.1849    1.5311    1.5608 C   0  0  0  0  0  0  0  0  0  0  0  0
    3.4928    0.8368    1.9493 C   0  0  0  0  0  0  0  0  0  0  0  0
    3.8035   -0.1466    0.8198 C   0  0  0  0  0  0  0  0  0  0  0  0
    4.7939    0.4269   -0.0312 O   0  0  0  0  0  0  0  0  0  0  0  0
    1.7542   -1.0805   -1.8723 H   0  0  0  0  0  0  0  0  0  0  0  0
    3.2059   -0.0942   -1.9584 H   0  0  0  0  0  0  0  0  0  0  0  0
    3.2993   -1.7594   -1.3693 H   0  0  0  0  0  0  0  0  0  0  0  0
    2.0155   -2.4052    0.7162 H   0  0  0  0  0  0  0  0  0  0  0  0
    1.6514   -1.2100    1.9369 H   0  0  0  0  0  0  0  0  0  0  0  0
    0.0306   -1.7982   -0.5648 H   0  0  0  0  0  0  0  0  0  0  0  0
   -0.3737   -2.1166    1.1058 H   0  0  0  0  0  0  0  0  0  0  0  0
   -0.5270    0.2149    1.6592 H   0  0  0  0  0  0  0  0  0  0  0  0
   -0.0125    2.0516    0.3403 H   0  0  0  0  0  0  0  0  0  0  0  0
    0.8783    1.3183   -2.2253 H   0  0  0  0  0  0  0  0  0  0  0  0
   -0.5037    2.2573   -1.7491 H   0  0  0  0  0  0  0  0  0  0  0  0
   -0.3961   -0.6760   -2.4526 H   0  0  0  0  0  0  0  0  0  0  0  0
   -1.3137    0.6096   -3.2053 H   0  0  0  0  0  0  0  0  0  0  0  0
   -3.3210   -0.8402   -3.0338 H   0  0  0  0  0  0  0  0  0  0  0  0
   -4.9082   -0.3065    0.7101 H   0  0  0  0  0  0  0  0  0  0  0  0
   -4.7750   -2.0707    0.7196 H   0  0  0  0  0  0  0  0  0  0  0  0
   -2.8586   -0.9381    1.9136 H   0  0  0  0  0  0  0  0  0  0  0  0
   -2.4289   -2.0639    0.6320 H   0  0  0  0  0  0  0  0  0  0  0  0
   -2.1618    2.2442   -0.0045 H   0  0  0  0  0  0  0  0  0  0  0  0
   -2.5826    1.5822    1.5801 H   0  0  0  0  0  0  0  0  0  0  0  0
   -3.7112    1.4840    0.2245 H   0  0  0  0  0  0  0  0  0  0  0  0
    2.3266    1.6990   -0.5583 H   0  0  0  0  0  0  0  0  0  0  0  0
    1.4117    1.2897    2.2984 H   0  0  0  0  0  0  0  0  0  0  0  0
    2.2994    2.6208    1.5676 H   0  0  0  0  0  0  0  0  0  0  0  0
    4.2955    1.5667    2.0989 H   0  0  0  0  0  0  0  0  0  0  0  0
    3.3477    0.3018    2.8947 H   0  0  0  0  0  0  0  0  0  0  0  0
    4.2223   -1.0804    1.2090 H   0  0  0  0  0  0  0  0  0  0  0  0
    4.4983    1.3129   -0.2993 H   0  0  0  0  0  0  0  0  0  0  0  0
  1  2  1  0
  2  3  1  0
  3  4  1  0
  4  5  1  0
  5  6  1  0
  6  7  1  0
  7  8  1  0
  8  9  1  0
  9 10  2  0
 10 11  1  0
 11 12  2  0
 11 13  1  0
 13 14  1  0
 14 15  1  0
 15 16  1  0
  6 17  1  0
 17 18  1  0
 18 19  1  0
 19 20  1  0
 20 21  1  0
 17  2  1  0
 20  2  1  0
 15  5  1  0
 15  9  1  0
  1 22  1  0
  1 23  1  0
  1 24  1  0
  3 25  1  0
  3 26  1  0
  4 27  1  0
  4 28  1  0
  5 29  1  0
  6 30  1  0
  7 31  1  0
  7 32  1  0
  8 33  1  0
  8 34  1  0
 10 35  1  0
 13 36  1  0
 13 37  1  0
 14 38  1  0
 14 39  1  0
 16 40  1  0
 16 41  1  0
 16 42  1  0
 17 43  1  0
 18 44  1  0
 18 45  1  0
 19 46  1  0
 19 47  1  0
 20 48  1  0
 21 49  1  0
M  END
$$$$
