
     RDKit          3D

 49 52  0  0  0  0  0  0  0  0999 V2000
   -2.4669   -0.8038   -1.8383 C   0  0  0  0  0  0  0  0  0  0  0  0
   -2.4265    0.1973   -0.6601 C   0  0  0  0  0  0  0  0  0  0  0  0
   -1.7776    1.5048   -1.1335 C   0  0  0  0  0  0  0  0  0  0  0  0
   -0.2620    1.3385   -1.3615 C   0  0  0  0  0  0  0  0  0  0  0  0
    0.4886    0.8098   -0.1094 C   0  0  0  0  0  0  0  0  0  0  0  0
   -0.1698   -0.4898    0.4631 C   0  0  0  0  0  0  0  0  0  0  0  0
    0.2389   -1.7924   -0.2546 C   0  0  0  0  0  0  0  0  0  0  0  0
    1.4767   -1.6568   -1.1367 C   0  0  0  0  0  0  0  0  0  0  0  0
    2.4822   -0.7826   -0.4482 C   0  0  0  0  0  0  0  0  0  0  0  0
    3.6326   -1.2949    0.0226 C   0  0  0  0  0  0  0  0  0  0  0  0
    4.5937   -0.4698    0.7917 C   0  0  0  0  0  0  0  0  0  0  0  0
    5.6824   -0.9499    1.1010 O   0  0  0  0  0  0  0  0  0  0  0  0
    4.2162    0.9480    1.1460 C   0  0  0  0  0  0  0  0  0  0  0  0
    2.7083    1.1727    1.0754 C   0  0  0  0  0  0  0  0  0  0  0  0
    2.0621    0.6714   -0.2494 C   0  0  0  0  0  0  0  0  0  0  0  0
    2.6215    1.5036   -1.4253 C   0  0  0  0  0  0  0  0  0  0  0  0
   -1.6811   -0.2686    0.6100 C   0  0  0  0  0  0  0  0  0  0  0  0
   -2.5584   -1.3823    1.1686 C   0  0  0  0  0  0  0  0  0  0  0  0
   -3.9945   -0.9285    0.8322 C   0  0  0  0  0  0  0  0  0  0  0  0
   -3.8635    0.3003   -0.0953 C   0  0  0  0  0  0  0  0  0  0  0  0
   -4.0280    1.4857    0.6778 O   0  0  0  0  0  0  0  0  0  0  0  0
   -1.4931   -0.9474   -2.3109 H   0  0  0  0  0  0  0  0  0  0  0  0
   -3.1375   -0.4335   -2.6236 H   0  0  0  0  0  0  0  0  0  0  0  0
   -2.8381   -1.7901   -1.5438 H   0  0  0  0  0  0  0  0  0  0  0  0
   -2.2518    1.8563   -2.0578 H   0  0  0  0  0  0  0  0  0  0  0  0
   -1.9228    2.3005   -0.3923 H   0  0  0  0  0  0  0  0  0  0  0  0
   -0.0827    0.6886   -2.2225 H   0  0  0  0  0  0  0  0  0  0  0  0
    0.1271    2.3268   -1.6330 H   0  0  0  0  0  0  0  0  0  0  0  0
    0.3136    1.5920    0.6463 H   0  0  0  0  0  0  0  0  0  0  0  0
    0.2158   -0.5960    1.4889 H   0  0  0  0  0  0  0  0  0  0  0  0
    0.4419   -2.5471    0.5188 H   0  0  0  0  0  0  0  0  0  0  0  0
   -0.5678   -2.2254   -0.8475 H   0  0  0  0  0  0  0  0  0  0  0  0
    1.2148   -1.2252   -2.1089 H   0  0  0  0  0  0  0  0  0  0  0  0
    1.8803   -2.6543   -1.3486 H   0  0  0  0  0  0  0  0  0  0  0  0
    3.9138   -2.3334   -0.1129 H   0  0  0  0  0  0  0  0  0  0  0  0
    4.5569    1.1484    2.1680 H   0  0  0  0  0  0  0  0  0  0  0  0
    4.7510    1.6265    0.4739 H   0  0  0  0  0  0  0  0  0  0  0  0
    2.5033    2.2417    1.2163 H   0  0  0  0  0  0  0  0  0  0  0  0
    2.2447    0.6555    1.9272 H   0  0  0  0  0  0  0  0  0  0  0  0
    3.7073    1.3992   -1.5287 H   0  0  0  0  0  0  0  0  0  0  0  0
    2.1985    1.1895   -2.3858 H   0  0  0  0  0  0  0  0  0  0  0  0
    2.4112    2.5701   -1.2884 H   0  0  0  0  0  0  0  0  0  0  0  0
   -1.7573    0.5493    1.3477 H   0  0  0  0  0  0  0  0  0  0  0  0
   -2.4214   -1.5019    2.2483 H   0  0  0  0  0  0  0  0  0  0  0  0
   -2.3514   -2.3508    0.7025 H   0  0  0  0  0  0  0  0  0  0  0  0
   -4.5497   -0.6944    1.7468 H   0  0  0  0  0  0  0  0  0  0  0  0
   -4.5165   -1.7441    0.3193 H   0  0  0  0  0  0  0  0  0  0  0  0
   -4.6308    0.3063   -0.8765 H   0  0  0  0  0  0  0  0  0  0  0  0
   -4.9342    1.4800    1.0310 H   0  0  0  0  0  0  0  0  0  0  0  0
  1  2  1  0
  2  3  1  0
  3  4  1  0
  4  5  1  0
  5  6  1  0
  6  7  1  0
  7  8  1  0
  8  9  1  0
  9 10  2  0
 10 11  1  0
 11 12  2  0
 11 13  1  0
 13 14  1  0
 14 15  1  0
 15 16  1  0
  6 17  1  0
 17 18  1  0
 18 19  1  0
 19 20  1  0
 20 21  1  0
 17  2  1  0
 20  2  1  0
 15  5  1  0
 15  9  1  0
  1 22  1  0
  1 23  1  0
  1 24  1  0
  3 25  1  0
  3 26  1  0
  4 27  1  0
  4 28  1  0
  5 29  1  0
  6 30  1  0
  7 31  1  0
  7 32  1  0
  8 33  1  0
  8 34  1  0
 10 35  1  0
 13 36  1  0
 13 37  1  0
 14 38  1  0
 14 39  1  0
 16 40  1  0
 16 41  1  0
 16 42  1  0
 17 43  1  0
 18 44  1  0
 18 45  1  0
 19 46  1  0
 19 47  1  0
 20 48  1  0
 21 49  1  0
M  END
$$$$
