
     RDKit          3D

 55 56  0  0  0  0  0  0  0  0999 V2000
   -8.3526   -2.2803    1.0649 C   0  0  0  0  0  0  0  0  0  0  0  0
   -8.1073   -0.9056    1.3227 O   0  0  0  0  0  0  0  0  0  0  0  0
   -6.9146   -0.3844    0.8969 C   0  0  0  0  0  0  0  0  0  0  0  0
   -5.9214   -1.0952    0.2184 C   0  0  0  0  0  0  0  0  0  0  0  0
   -4.7244   -0.4687   -0.1667 C   0  0  0  0  0  0  0  0  0  0  0  0
   -4.5335    0.8951    0.1061 C   0  0  0  0  0  0  0  0  0  0  0  0
   -5.5157    1.6207    0.7786 C   0  0  0  0  0  0  0  0  0  0  0  0
   -6.6942    0.9700    1.1713 C   0  0  0  0  0  0  0  0  0  0  0  0
   -7.6552    1.6933    1.8380 O   0  0  0  0  0  0  0  0  0  0  0  0
   -5.4519    2.9520    1.1087 O   0  0  0  0  0  0  0  0  0  0  0  0
   -4.2990    3.6639    0.6752 C   0  0  0  0  0  0  0  0  0  0  0  0
   -3.7214   -1.2561   -0.8965 C   0  0  0  0  0  0  0  0  0  0  0  0
   -2.4033   -1.1819   -0.6547 C   0  0  0  0  0  0  0  0  0  0  0  0
   -1.4658   -2.0352   -1.4269 C   0  0  0  0  0  0  0  0  0  0  0  0
   -1.8613   -2.9248   -2.1770 O   0  0  0  0  0  0  0  0  0  0  0  0
   -0.0034   -1.8557   -1.2380 C   0  0  0  0  0  0  0  0  0  0  0  0
    0.6620   -0.7454   -0.8868 C   0  0  0  0  0  0  0  0  0  0  0  0
    0.0261    0.4608   -0.6934 O   0  0  0  0  0  0  0  0  0  0  0  0
    2.1121   -0.7360   -0.7878 C   0  0  0  0  0  0  0  0  0  0  0  0
    2.8431    0.1522   -0.0926 C   0  0  0  0  0  0  0  0  0  0  0  0
    4.3118    0.1026   -0.0156 C   0  0  0  0  0  0  0  0  0  0  0  0
    4.9940   -1.1003    0.2366 C   0  0  0  0  0  0  0  0  0  0  0  0
    6.3879   -1.1255    0.3294 C   0  0  0  0  0  0  0  0  0  0  0  0
    7.0872    0.0772    0.1788 C   0  0  0  0  0  0  0  0  0  0  0  0
    8.4593    0.0799    0.2661 O   0  0  0  0  0  0  0  0  0  0  0  0
    6.4262    1.2912   -0.0570 C   0  0  0  0  0  0  0  0  0  0  0  0
    5.0348    1.2981   -0.1478 C   0  0  0  0  0  0  0  0  0  0  0  0
    7.2486    2.3838   -0.1752 O   0  0  0  0  0  0  0  0  0  0  0  0
    6.6232    3.6345   -0.4378 C   0  0  0  0  0  0  0  0  0  0  0  0
    7.1434   -2.2432    0.5646 O   0  0  0  0  0  0  0  0  0  0  0  0
    6.4632   -3.4817    0.7043 C   0  0  0  0  0  0  0  0  0  0  0  0
   -8.3780   -2.4823   -0.0110 H   0  0  0  0  0  0  0  0  0  0  0  0
   -7.6166   -2.9147    1.5700 H   0  0  0  0  0  0  0  0  0  0  0  0
   -9.3378   -2.5266    1.4723 H   0  0  0  0  0  0  0  0  0  0  0  0
   -6.0517   -2.1474   -0.0160 H   0  0  0  0  0  0  0  0  0  0  0  0
   -3.6165    1.3705   -0.2251 H   0  0  0  0  0  0  0  0  0  0  0  0
   -7.2921    2.5955    1.9101 H   0  0  0  0  0  0  0  0  0  0  0  0
   -4.4105    4.7049    0.9937 H   0  0  0  0  0  0  0  0  0  0  0  0
   -3.3922    3.2677    1.1436 H   0  0  0  0  0  0  0  0  0  0  0  0
   -4.2177    3.6569   -0.4167 H   0  0  0  0  0  0  0  0  0  0  0  0
   -4.1070   -1.9416   -1.6498 H   0  0  0  0  0  0  0  0  0  0  0  0
   -1.9982   -0.5386    0.1149 H   0  0  0  0  0  0  0  0  0  0  0  0
    0.5439   -2.7662   -1.4697 H   0  0  0  0  0  0  0  0  0  0  0  0
    0.6606    1.1710   -0.8927 H   0  0  0  0  0  0  0  0  0  0  0  0
    2.6211   -1.5455   -1.3124 H   0  0  0  0  0  0  0  0  0  0  0  0
    2.3779    0.9587    0.4688 H   0  0  0  0  0  0  0  0  0  0  0  0
    4.4161   -2.0089    0.3709 H   0  0  0  0  0  0  0  0  0  0  0  0
    8.7243    1.0096    0.1370 H   0  0  0  0  0  0  0  0  0  0  0  0
    4.4915    2.2195   -0.3289 H   0  0  0  0  0  0  0  0  0  0  0  0
    7.4091    4.3928   -0.5086 H   0  0  0  0  0  0  0  0  0  0  0  0
    5.9564    3.9217    0.3819 H   0  0  0  0  0  0  0  0  0  0  0  0
    6.0909    3.6154   -1.3944 H   0  0  0  0  0  0  0  0  0  0  0  0
    5.8005   -3.4716    1.5761 H   0  0  0  0  0  0  0  0  0  0  0  0
    7.2149   -4.2602    0.8672 H   0  0  0  0  0  0  0  0  0  0  0  0
    5.9133   -3.7362   -0.2080 H   0  0  0  0  0  0  0  0  0  0  0  0
  1  2  1  0
  2  3  1  0
  3  4  2  0
  4  5  1  0
  5  6  2  0
  6  7  1  0
  7  8  2  0
  8  9  1  0
  7 10  1  0
 10 11  1  0
  5 12  1  0
 12 13  2  0
 13 14  1  0
 14 15  2  0
 14 16  1  0
 16 17  2  0
 17 18  1  0
 17 19  1  0
 19 20  2  0
 20 21  1  0
 21 22  2  0
 22 23  1  0
 23 24  2  0
 24 25  1  0
 24 26  1  0
 26 27  2  0
 26 28  1  0
 28 29  1  0
 23 30  1  0
 30 31  1  0
  8  3  1  0
 27 21  1  0
  1 32  1  0
  1 33  1  0
  1 34  1  0
  4 35  1  0
  6 36  1  0
  9 37  1  0
 11 38  1  0
 11 39  1  0
 11 40  1  0
 12 41  1  0
 13 42  1  0
 16 43  1  0
 18 44  1  0
 19 45  1  0
 20 46  1  0
 22 47  1  0
 25 48  1  0
 27 49  1  0
 29 50  1  0
 29 51  1  0
 29 52  1  0
 31 53  1  0
 31 54  1  0
 31 55  1  0
M  END
$$$$
