
     RDKit          3D

 50 53  0  0  0  0  0  0  0  0999 V2000
    8.8048   -0.1921    1.8361 C   0  0  0  0  0  0  0  0  0  0  0  0
    7.3358   -0.0354    1.5607 C   0  0  0  0  0  0  0  0  0  0  0  0
    6.5531    0.7800    2.3925 C   0  0  0  0  0  0  0  0  0  0  0  0
    5.1745    0.9243    2.1816 C   0  0  0  0  0  0  0  0  0  0  0  0
    4.5808    0.2261    1.1223 C   0  0  0  0  0  0  0  0  0  0  0  0
    5.3682   -0.5854    0.3200 C   0  0  0  0  0  0  0  0  0  0  0  0
    6.7433   -0.7502    0.5052 C   0  0  0  0  0  0  0  0  0  0  0  0
    4.4881   -1.1093   -0.5909 N   0  0  0  0  0  0  0  0  0  0  0  0
    3.2273   -0.6183   -0.3307 C   0  0  0  0  0  0  0  0  0  0  0  0
    3.2719    0.1964    0.7108 N   0  0  0  0  0  0  0  0  0  0  0  0
    2.0227   -0.9542   -1.1007 C   0  0  0  0  0  0  0  0  0  0  0  0
    0.8002   -0.3607   -0.7396 C   0  0  0  0  0  0  0  0  0  0  0  0
   -0.3874   -0.6366   -1.4316 C   0  0  0  0  0  0  0  0  0  0  0  0
   -0.3476   -1.5252   -2.5036 C   0  0  0  0  0  0  0  0  0  0  0  0
    0.8571   -2.1253   -2.8774 C   0  0  0  0  0  0  0  0  0  0  0  0
    2.0350   -1.8430   -2.1821 C   0  0  0  0  0  0  0  0  0  0  0  0
   -1.5560    0.0129   -0.9825 N   0  0  0  0  0  0  0  0  0  0  0  0
   -2.8367   -0.0835   -1.5070 C   0  0  0  0  0  0  0  0  0  0  0  0
   -3.1634   -0.7485   -2.4834 O   0  0  0  0  0  0  0  0  0  0  0  0
   -3.8450    0.7630   -0.7205 C   0  0  0  0  0  0  0  0  0  0  0  0
   -5.1790    0.9079   -1.4715 C   0  0  0  0  0  0  0  0  0  0  0  0
   -6.3098    1.2401   -0.5023 C   0  0  0  0  0  0  0  0  0  0  0  0
   -6.5430    0.1560    0.4598 N   0  0  0  0  0  0  0  0  0  0  0  0
   -5.3398   -0.6087    0.8046 C   0  0  0  0  0  0  0  0  0  0  0  0
   -4.0512    0.2061    0.7009 C   0  0  0  0  0  0  0  0  0  0  0  0
   -7.2502    0.6458    1.6393 C   0  0  0  0  0  0  0  0  0  0  0  0
    9.3545   -0.4091    0.9141 H   0  0  0  0  0  0  0  0  0  0  0  0
    9.2238    0.7292    2.2541 H   0  0  0  0  0  0  0  0  0  0  0  0
    8.9666   -1.0097    2.5453 H   0  0  0  0  0  0  0  0  0  0  0  0
    7.0132    1.3167    3.2200 H   0  0  0  0  0  0  0  0  0  0  0  0
    4.5721    1.5584    2.8219 H   0  0  0  0  0  0  0  0  0  0  0  0
    7.3281   -1.3996   -0.1378 H   0  0  0  0  0  0  0  0  0  0  0  0
    4.7303   -1.7479   -1.3312 H   0  0  0  0  0  0  0  0  0  0  0  0
    0.7909    0.3303    0.1023 H   0  0  0  0  0  0  0  0  0  0  0  0
   -1.2376   -1.7763   -3.0722 H   0  0  0  0  0  0  0  0  0  0  0  0
    0.8714   -2.8173   -3.7165 H   0  0  0  0  0  0  0  0  0  0  0  0
    2.9460   -2.3343   -2.5080 H   0  0  0  0  0  0  0  0  0  0  0  0
   -1.4329    0.6321   -0.1906 H   0  0  0  0  0  0  0  0  0  0  0  0
   -3.4017    1.7649   -0.6286 H   0  0  0  0  0  0  0  0  0  0  0  0
   -5.0873    1.7002   -2.2245 H   0  0  0  0  0  0  0  0  0  0  0  0
   -5.4373   -0.0055   -2.0222 H   0  0  0  0  0  0  0  0  0  0  0  0
   -6.0606    2.1784    0.0118 H   0  0  0  0  0  0  0  0  0  0  0  0
   -7.2322    1.4183   -1.0670 H   0  0  0  0  0  0  0  0  0  0  0  0
   -5.4204   -1.0492    1.8062 H   0  0  0  0  0  0  0  0  0  0  0  0
   -5.2726   -1.4620    0.1173 H   0  0  0  0  0  0  0  0  0  0  0  0
   -4.1004    1.0431    1.4099 H   0  0  0  0  0  0  0  0  0  0  0  0
   -3.2095   -0.4177    1.0220 H   0  0  0  0  0  0  0  0  0  0  0  0
   -6.6386    1.3399    2.2266 H   0  0  0  0  0  0  0  0  0  0  0  0
   -7.5449   -0.1876    2.2866 H   0  0  0  0  0  0  0  0  0  0  0  0
   -8.1746    1.1584    1.3505 H   0  0  0  0  0  0  0  0  0  0  0  0
  1  2  1  0
  2  3  2  0
  3  4  1  0
  4  5  2  0
  5  6  1  0
  6  7  2  0
  6  8  1  0
  8  9  1  0
  9 10  2  0
  9 11  1  0
 11 12  2  0
 12 13  1  0
 13 14  2  0
 14 15  1  0
 15 16  2  0
 13 17  1  0
 17 18  1  0
 18 19  2  0
 18 20  1  0
 20 21  1  0
 21 22  1  0
 22 23  1  0
 23 24  1  0
 24 25  1  0
 23 26  1  0
  7  2  1  0
 10  5  1  0
 16 11  1  0
 25 20  1  0
  1 27  1  0
  1 28  1  0
  1 29  1  0
  3 30  1  0
  4 31  1  0
  7 32  1  0
  8 33  1  0
 12 34  1  0
 14 35  1  0
 15 36  1  0
 16 37  1  0
 17 38  1  0
 20 39  1  0
 21 40  1  0
 21 41  1  0
 22 42  1  0
 22 43  1  0
 24 44  1  0
 24 45  1  0
 25 46  1  0
 25 47  1  0
 26 48  1  0
 26 49  1  0
 26 50  1  0
M  END
$$$$
