
     RDKit          3D

 50 53  0  0  0  0  0  0  0  0999 V2000
    7.8516    1.1399    2.7362 C   0  0  0  0  0  0  0  0  0  0  0  0
    6.9905    0.4314    1.7288 C   0  0  0  0  0  0  0  0  0  0  0  0
    7.5849   -0.3887    0.7573 C   0  0  0  0  0  0  0  0  0  0  0  0
    6.8093   -1.0893   -0.1771 C   0  0  0  0  0  0  0  0  0  0  0  0
    5.4154   -0.9645   -0.1209 C   0  0  0  0  0  0  0  0  0  0  0  0
    4.8459   -0.1583    0.8534 C   0  0  0  0  0  0  0  0  0  0  0  0
    5.5915    0.5488    1.8002 C   0  0  0  0  0  0  0  0  0  0  0  0
    3.4982   -0.2689    0.6311 N   0  0  0  0  0  0  0  0  0  0  0  0
    3.2883   -1.1008   -0.4467 C   0  0  0  0  0  0  0  0  0  0  0  0
    4.4475   -1.5412   -0.9041 N   0  0  0  0  0  0  0  0  0  0  0  0
    1.9663   -1.4604   -0.9701 C   0  0  0  0  0  0  0  0  0  0  0  0
    0.8270   -0.6677   -0.7495 C   0  0  0  0  0  0  0  0  0  0  0  0
   -0.4292   -1.0379   -1.2595 C   0  0  0  0  0  0  0  0  0  0  0  0
   -0.5379   -2.2168   -1.9965 C   0  0  0  0  0  0  0  0  0  0  0  0
    0.5876   -3.0081   -2.2335 C   0  0  0  0  0  0  0  0  0  0  0  0
    1.8300   -2.6295   -1.7277 C   0  0  0  0  0  0  0  0  0  0  0  0
   -1.5135   -0.1743   -0.9896 N   0  0  0  0  0  0  0  0  0  0  0  0
   -2.8366   -0.3244   -1.3846 C   0  0  0  0  0  0  0  0  0  0  0  0
   -3.2868   -1.2491   -2.0502 O   0  0  0  0  0  0  0  0  0  0  0  0
   -3.7181    0.8291   -0.8898 C   0  0  0  0  0  0  0  0  0  0  0  0
   -5.0917    0.8362   -1.5810 C   0  0  0  0  0  0  0  0  0  0  0  0
   -6.1167    1.5863   -0.7354 C   0  0  0  0  0  0  0  0  0  0  0  0
   -6.3527    0.9250    0.5536 N   0  0  0  0  0  0  0  0  0  0  0  0
   -5.1895    0.2069    1.0830 C   0  0  0  0  0  0  0  0  0  0  0  0
   -3.8544    0.8073    0.6445 C   0  0  0  0  0  0  0  0  0  0  0  0
   -6.9276    1.8531    1.5225 C   0  0  0  0  0  0  0  0  0  0  0  0
    8.8168    1.4161    2.2988 H   0  0  0  0  0  0  0  0  0  0  0  0
    7.3739    2.0643    3.0776 H   0  0  0  0  0  0  0  0  0  0  0  0
    8.0256    0.4915    3.6004 H   0  0  0  0  0  0  0  0  0  0  0  0
    8.6676   -0.4918    0.7179 H   0  0  0  0  0  0  0  0  0  0  0  0
    7.2694   -1.7203   -0.9291 H   0  0  0  0  0  0  0  0  0  0  0  0
    5.1128    1.1624    2.5561 H   0  0  0  0  0  0  0  0  0  0  0  0
    2.7783    0.1660    1.1854 H   0  0  0  0  0  0  0  0  0  0  0  0
    0.9182    0.2594   -0.1926 H   0  0  0  0  0  0  0  0  0  0  0  0
   -1.4837   -2.5500   -2.4120 H   0  0  0  0  0  0  0  0  0  0  0  0
    0.4943   -3.9207   -2.8169 H   0  0  0  0  0  0  0  0  0  0  0  0
    2.6998   -3.2550   -1.9248 H   0  0  0  0  0  0  0  0  0  0  0  0
   -1.2941    0.6607   -0.4629 H   0  0  0  0  0  0  0  0  0  0  0  0
   -3.1981    1.7568   -1.1686 H   0  0  0  0  0  0  0  0  0  0  0  0
   -5.4584   -0.1811   -1.7678 H   0  0  0  0  0  0  0  0  0  0  0  0
   -5.0001    1.3109   -2.5656 H   0  0  0  0  0  0  0  0  0  0  0  0
   -5.7605    2.6156   -0.5922 H   0  0  0  0  0  0  0  0  0  0  0  0
   -7.0648    1.6474   -1.2822 H   0  0  0  0  0  0  0  0  0  0  0  0
   -5.2419   -0.8309    0.7290 H   0  0  0  0  0  0  0  0  0  0  0  0
   -5.2249    0.1416    2.1777 H   0  0  0  0  0  0  0  0  0  0  0  0
   -3.7837    1.8350    1.0247 H   0  0  0  0  0  0  0  0  0  0  0  0
   -3.0403    0.2487    1.1196 H   0  0  0  0  0  0  0  0  0  0  0  0
   -7.8312    2.3232    1.1184 H   0  0  0  0  0  0  0  0  0  0  0  0
   -7.2319    1.3229    2.4318 H   0  0  0  0  0  0  0  0  0  0  0  0
   -6.2223    2.6434    1.8031 H   0  0  0  0  0  0  0  0  0  0  0  0
  1  2  1  0
  2  3  2  0
  3  4  1  0
  4  5  2  0
  5  6  1  0
  6  7  2  0
  6  8  1  0
  8  9  1  0
  9 10  2  0
  9 11  1  0
 11 12  2  0
 12 13  1  0
 13 14  2  0
 14 15  1  0
 15 16  2  0
 13 17  1  0
 17 18  1  0
 18 19  2  0
 18 20  1  0
 20 21  1  0
 21 22  1  0
 22 23  1  0
 23 24  1  0
 24 25  1  0
 23 26  1  0
  7  2  1  0
 10  5  1  0
 16 11  1  0
 25 20  1  0
  1 27  1  0
  1 28  1  0
  1 29  1  0
  3 30  1  0
  4 31  1  0
  7 32  1  0
  8 33  1  0
 12 34  1  0
 14 35  1  0
 15 36  1  0
 16 37  1  0
 17 38  1  0
 20 39  1  0
 21 40  1  0
 21 41  1  0
 22 42  1  0
 22 43  1  0
 24 44  1  0
 24 45  1  0
 25 46  1  0
 25 47  1  0
 26 48  1  0
 26 49  1  0
 26 50  1  0
M  END
$$$$
