
     RDKit          3D

 50 53  0  0  0  0  0  0  0  0999 V2000
   -8.6999   -0.3813    1.1489 C   0  0  0  0  0  0  0  0  0  0  0  0
   -7.2027   -0.3399    1.0253 C   0  0  0  0  0  0  0  0  0  0  0  0
   -6.4131   -1.1367    1.8719 C   0  0  0  0  0  0  0  0  0  0  0  0
   -5.0131   -1.1425    1.7720 C   0  0  0  0  0  0  0  0  0  0  0  0
   -4.4047   -0.3368    0.7998 C   0  0  0  0  0  0  0  0  0  0  0  0
   -5.2047    0.4327   -0.0319 C   0  0  0  0  0  0  0  0  0  0  0  0
   -6.5992    0.4602    0.0401 C   0  0  0  0  0  0  0  0  0  0  0  0
   -4.3120    1.0776   -0.8454 N   0  0  0  0  0  0  0  0  0  0  0  0
   -3.0307    0.7017   -0.5019 C   0  0  0  0  0  0  0  0  0  0  0  0
   -3.0740   -0.1624    0.4982 N   0  0  0  0  0  0  0  0  0  0  0  0
   -1.8153    1.1966   -1.1662 C   0  0  0  0  0  0  0  0  0  0  0  0
   -0.5525    0.7430   -0.7368 C   0  0  0  0  0  0  0  0  0  0  0  0
    0.6338    1.1801   -1.3478 C   0  0  0  0  0  0  0  0  0  0  0  0
    0.5449    2.0907   -2.4016 C   0  0  0  0  0  0  0  0  0  0  0  0
   -0.6963    2.5558   -2.8389 C   0  0  0  0  0  0  0  0  0  0  0  0
   -1.8669    2.1136   -2.2254 C   0  0  0  0  0  0  0  0  0  0  0  0
    1.8544    0.6602   -0.8581 N   0  0  0  0  0  0  0  0  0  0  0  0
    3.1228    0.9099   -1.3447 C   0  0  0  0  0  0  0  0  0  0  0  0
    3.4025    1.6632   -2.2778 O   0  0  0  0  0  0  0  0  0  0  0  0
    4.2481    0.1735   -0.6304 C   0  0  0  0  0  0  0  0  0  0  0  0
    4.0947   -1.3479   -0.6698 C   0  0  0  0  0  0  0  0  0  0  0  0
    5.2921   -2.0132    0.0100 C   0  0  0  0  0  0  0  0  0  0  0  0
    5.4510   -1.5349    1.3918 N   0  0  0  0  0  0  0  0  0  0  0  0
    5.6225   -0.0749    1.4482 C   0  0  0  0  0  0  0  0  0  0  0  0
    4.4330    0.6467    0.8117 C   0  0  0  0  0  0  0  0  0  0  0  0
    6.5933   -2.2008    2.0247 C   0  0  0  0  0  0  0  0  0  0  0  0
   -9.0868   -1.3073    0.7120 H   0  0  0  0  0  0  0  0  0  0  0  0
   -9.1632    0.4662    0.6324 H   0  0  0  0  0  0  0  0  0  0  0  0
   -9.0011   -0.3247    2.2005 H   0  0  0  0  0  0  0  0  0  0  0  0
   -6.8860   -1.7658    2.6243 H   0  0  0  0  0  0  0  0  0  0  0  0
   -4.4071   -1.7554    2.4283 H   0  0  0  0  0  0  0  0  0  0  0  0
   -7.1914    1.0719   -0.6313 H   0  0  0  0  0  0  0  0  0  0  0  0
   -4.5592    1.7244   -1.5780 H   0  0  0  0  0  0  0  0  0  0  0  0
   -0.5125    0.0323    0.0854 H   0  0  0  0  0  0  0  0  0  0  0  0
    1.4272    2.4653   -2.9109 H   0  0  0  0  0  0  0  0  0  0  0  0
   -0.7410    3.2667   -3.6600 H   0  0  0  0  0  0  0  0  0  0  0  0
   -2.8062    2.5024   -2.6018 H   0  0  0  0  0  0  0  0  0  0  0  0
    1.7766    0.0201   -0.0772 H   0  0  0  0  0  0  0  0  0  0  0  0
    5.1644    0.4276   -1.1839 H   0  0  0  0  0  0  0  0  0  0  0  0
    4.0184   -1.6906   -1.7089 H   0  0  0  0  0  0  0  0  0  0  0  0
    3.1719   -1.6623   -0.1669 H   0  0  0  0  0  0  0  0  0  0  0  0
    6.1986   -1.8200   -0.5759 H   0  0  0  0  0  0  0  0  0  0  0  0
    5.1282   -3.0973    0.0094 H   0  0  0  0  0  0  0  0  0  0  0  0
    6.5518    0.2278    0.9475 H   0  0  0  0  0  0  0  0  0  0  0  0
    5.6989    0.2493    2.4944 H   0  0  0  0  0  0  0  0  0  0  0  0
    4.6035    1.7309    0.8365 H   0  0  0  0  0  0  0  0  0  0  0  0
    3.5278    0.4602    1.4049 H   0  0  0  0  0  0  0  0  0  0  0  0
    7.5312   -2.0092    1.4879 H   0  0  0  0  0  0  0  0  0  0  0  0
    6.7151   -1.8621    3.0607 H   0  0  0  0  0  0  0  0  0  0  0  0
    6.4329   -3.2845    2.0638 H   0  0  0  0  0  0  0  0  0  0  0  0
  1  2  1  0
  2  3  2  0
  3  4  1  0
  4  5  2  0
  5  6  1  0
  6  7  2  0
  6  8  1  0
  8  9  1  0
  9 10  2  0
  9 11  1  0
 11 12  2  0
 12 13  1  0
 13 14  2  0
 14 15  1  0
 15 16  2  0
 13 17  1  0
 17 18  1  0
 18 19  2  0
 18 20  1  0
 20 21  1  0
 21 22  1  0
 22 23  1  0
 23 24  1  0
 24 25  1  0
 23 26  1  0
  7  2  1  0
 10  5  1  0
 16 11  1  0
 25 20  1  0
  1 27  1  0
  1 28  1  0
  1 29  1  0
  3 30  1  0
  4 31  1  0
  7 32  1  0
  8 33  1  0
 12 34  1  0
 14 35  1  0
 15 36  1  0
 16 37  1  0
 17 38  1  0
 20 39  1  0
 21 40  1  0
 21 41  1  0
 22 42  1  0
 22 43  1  0
 24 44  1  0
 24 45  1  0
 25 46  1  0
 25 47  1  0
 26 48  1  0
 26 49  1  0
 26 50  1  0
M  END
$$$$
