
     RDKit          3D

 64 67  0  0  0  0  0  0  0  0999 V2000
    1.3202   -1.2092    2.0192 C   0  0  0  0  0  0  0  0  0  0  0  0
    0.8957   -1.1579    0.5254 C   0  0  0  0  0  0  0  0  0  0  0  0
    0.5510    0.3030    0.1409 C   0  0  0  0  0  0  0  0  0  0  0  0
   -0.7802    0.8331    0.6692 C   0  0  0  0  0  0  0  0  0  0  0  0
   -1.9251   -0.1918    0.8504 C   0  0  0  0  0  0  0  0  0  0  0  0
   -1.6806   -1.4464   -0.0340 C   0  0  0  0  0  0  0  0  0  0  0  0
   -0.3248   -2.1151    0.3070 C   0  0  0  0  0  0  0  0  0  0  0  0
    0.1454   -3.1820   -0.6994 C   0  0  0  0  0  0  0  0  0  0  0  0
    1.2723   -2.5125   -1.4748 C   0  0  0  0  0  0  0  0  0  0  0  0
    2.0337   -1.7555   -0.3815 C   0  0  0  0  0  0  0  0  0  0  0  0
    3.0288   -0.7453   -0.9755 C   0  0  0  0  0  0  0  0  0  0  0  0
    3.0741   -0.4955   -2.1733 O   0  0  0  0  0  0  0  0  0  0  0  0
    3.8277   -0.1479   -0.0217 N   0  0  0  0  0  0  0  0  0  0  0  0
    4.7421    0.9856   -0.2598 C   0  0  0  0  0  0  0  0  0  0  0  0
    5.4225    1.3294    1.0811 C   0  0  0  0  0  0  0  0  0  0  0  0
    3.9609    2.2229   -0.7397 C   0  0  0  0  0  0  0  0  0  0  0  0
    5.8316    0.6058   -1.2738 C   0  0  0  0  0  0  0  0  0  0  0  0
   -1.9407   -1.0933   -1.5070 C   0  0  0  0  0  0  0  0  0  0  0  0
   -3.3861   -0.6333   -1.6973 C   0  0  0  0  0  0  0  0  0  0  0  0
   -3.8022    0.5091   -0.7963 C   0  0  0  0  0  0  0  0  0  0  0  0
   -4.5542    1.5052   -1.3039 C   0  0  0  0  0  0  0  0  0  0  0  0
   -5.1237    2.5780   -0.4517 C   0  0  0  0  0  0  0  0  0  0  0  0
   -5.8960    3.4033   -0.9401 O   0  0  0  0  0  0  0  0  0  0  0  0
   -4.7918    2.5791    1.0320 C   0  0  0  0  0  0  0  0  0  0  0  0
   -3.4845    1.8382    1.3286 C   0  0  0  0  0  0  0  0  0  0  0  0
   -3.3895    0.4135    0.6790 C   0  0  0  0  0  0  0  0  0  0  0  0
   -4.3922   -0.5302    1.4106 C   0  0  0  0  0  0  0  0  0  0  0  0
    1.8362   -2.1566    2.2506 H   0  0  0  0  0  0  0  0  0  0  0  0
    0.4523   -1.1552    2.6968 H   0  0  0  0  0  0  0  0  0  0  0  0
    1.9945   -0.3803    2.2944 H   0  0  0  0  0  0  0  0  0  0  0  0
    0.5217    0.3900   -0.9556 H   0  0  0  0  0  0  0  0  0  0  0  0
    1.3381    0.9991    0.4701 H   0  0  0  0  0  0  0  0  0  0  0  0
   -0.6074    1.3009    1.6488 H   0  0  0  0  0  0  0  0  0  0  0  0
   -1.0569    1.6586   -0.0110 H   0  0  0  0  0  0  0  0  0  0  0  0
   -1.8418   -0.5245    1.9009 H   0  0  0  0  0  0  0  0  0  0  0  0
   -2.4214   -2.2098    0.2379 H   0  0  0  0  0  0  0  0  0  0  0  0
   -0.5111   -2.6743    1.2312 H   0  0  0  0  0  0  0  0  0  0  0  0
    0.5498   -4.0523   -0.1654 H   0  0  0  0  0  0  0  0  0  0  0  0
   -0.6376   -3.5675   -1.3573 H   0  0  0  0  0  0  0  0  0  0  0  0
    1.9021   -3.2443   -1.9971 H   0  0  0  0  0  0  0  0  0  0  0  0
    0.8609   -1.8411   -2.2424 H   0  0  0  0  0  0  0  0  0  0  0  0
    2.6347   -2.4925    0.1708 H   0  0  0  0  0  0  0  0  0  0  0  0
    3.7400   -0.4898    0.9247 H   0  0  0  0  0  0  0  0  0  0  0  0
    4.6824    1.5875    1.8534 H   0  0  0  0  0  0  0  0  0  0  0  0
    6.0994    2.1919    0.9795 H   0  0  0  0  0  0  0  0  0  0  0  0
    5.9997    0.4787    1.4703 H   0  0  0  0  0  0  0  0  0  0  0  0
    4.6376    3.0626   -0.9542 H   0  0  0  0  0  0  0  0  0  0  0  0
    3.4227    2.0251   -1.6759 H   0  0  0  0  0  0  0  0  0  0  0  0
    3.2237    2.5478    0.0062 H   0  0  0  0  0  0  0  0  0  0  0  0
    5.4175    0.4166   -2.2649 H   0  0  0  0  0  0  0  0  0  0  0  0
    6.5774    1.4053   -1.3789 H   0  0  0  0  0  0  0  0  0  0  0  0
    6.3520   -0.3103   -0.9638 H   0  0  0  0  0  0  0  0  0  0  0  0
   -1.2541   -0.3241   -1.8675 H   0  0  0  0  0  0  0  0  0  0  0  0
   -1.7823   -1.9544   -2.1633 H   0  0  0  0  0  0  0  0  0  0  0  0
   -4.0510   -1.4946   -1.5071 H   0  0  0  0  0  0  0  0  0  0  0  0
   -3.5285   -0.3805   -2.7567 H   0  0  0  0  0  0  0  0  0  0  0  0
   -4.8642    1.5433   -2.3486 H   0  0  0  0  0  0  0  0  0  0  0  0
   -4.6945    3.6363    1.3565 H   0  0  0  0  0  0  0  0  0  0  0  0
   -5.6367    2.1456    1.5761 H   0  0  0  0  0  0  0  0  0  0  0  0
   -2.6795    2.4928    0.9522 H   0  0  0  0  0  0  0  0  0  0  0  0
   -3.3279    1.7880    2.4154 H   0  0  0  0  0  0  0  0  0  0  0  0
   -5.4339   -0.2176    1.2717 H   0  0  0  0  0  0  0  0  0  0  0  0
   -4.3259   -1.5876    1.0911 H   0  0  0  0  0  0  0  0  0  0  0  0
   -4.2222   -0.5032    2.4974 H   0  0  0  0  0  0  0  0  0  0  0  0
  1  2  1  0
  2  3  1  0
  3  4  1  0
  4  5  1  0
  5  6  1  0
  6  7  1  0
  7  8  1  0
  8  9  1  0
  9 10  1  0
 10 11  1  0
 11 12  2  0
 11 13  1  0
 13 14  1  0
 14 15  1  0
 14 16  1  0
 14 17  1  0
  6 18  1  0
 18 19  1  0
 19 20  1  0
 20 21  2  0
 21 22  1  0
 22 23  2  0
 22 24  1  0
 24 25  1  0
 25 26  1  0
 26 27  1  0
  7  2  1  0
 10  2  1  0
 26  5  1  0
 26 20  1  0
  1 28  1  0
  1 29  1  0
  1 30  1  0
  3 31  1  0
  3 32  1  0
  4 33  1  0
  4 34  1  0
  5 35  1  0
  6 36  1  0
  7 37  1  0
  8 38  1  0
  8 39  1  0
  9 40  1  0
  9 41  1  0
 10 42  1  0
 13 43  1  0
 15 44  1  0
 15 45  1  0
 15 46  1  0
 16 47  1  0
 16 48  1  0
 16 49  1  0
 17 50  1  0
 17 51  1  0
 17 52  1  0
 18 53  1  0
 18 54  1  0
 19 55  1  0
 19 56  1  0
 21 57  1  0
 24 58  1  0
 24 59  1  0
 25 60  1  0
 25 61  1  0
 27 62  1  0
 27 63  1  0
 27 64  1  0
M  END
$$$$
