
     RDKit          3D

 64 67  0  0  0  0  0  0  0  0999 V2000
    0.9668    0.9294    1.1470 C   0  0  0  0  0  0  0  0  0  0  0  0
    0.7505    0.4805   -0.3213 C   0  0  0  0  0  0  0  0  0  0  0  0
    0.4593   -1.0399   -0.3842 C   0  0  0  0  0  0  0  0  0  0  0  0
   -1.0421   -1.4076   -0.4577 C   0  0  0  0  0  0  0  0  0  0  0  0
   -1.9504   -0.3671    0.2113 C   0  0  0  0  0  0  0  0  0  0  0  0
   -1.7962    1.0261   -0.4632 C   0  0  0  0  0  0  0  0  0  0  0  0
   -0.3886    1.2333   -1.0397 C   0  0  0  0  0  0  0  0  0  0  0  0
    0.1471    2.6440   -1.2317 C   0  0  0  0  0  0  0  0  0  0  0  0
    1.6421    2.4312   -1.5154 C   0  0  0  0  0  0  0  0  0  0  0  0
    1.9561    0.9472   -1.1930 C   0  0  0  0  0  0  0  0  0  0  0  0
    3.3365    0.7478   -0.5653 C   0  0  0  0  0  0  0  0  0  0  0  0
    4.0467    1.6791   -0.2051 O   0  0  0  0  0  0  0  0  0  0  0  0
    3.6934   -0.5800   -0.4439 N   0  0  0  0  0  0  0  0  0  0  0  0
    4.9769   -1.0581    0.0929 C   0  0  0  0  0  0  0  0  0  0  0  0
    4.9459   -2.5975    0.0909 C   0  0  0  0  0  0  0  0  0  0  0  0
    6.1453   -0.5927   -0.7886 C   0  0  0  0  0  0  0  0  0  0  0  0
    5.1842   -0.5855    1.5411 C   0  0  0  0  0  0  0  0  0  0  0  0
   -2.3359    2.1199    0.4854 C   0  0  0  0  0  0  0  0  0  0  0  0
   -3.6349    1.6945    1.2048 C   0  0  0  0  0  0  0  0  0  0  0  0
   -4.2807    0.5579    0.4437 C   0  0  0  0  0  0  0  0  0  0  0  0
   -5.3673    0.7967   -0.3112 C   0  0  0  0  0  0  0  0  0  0  0  0
   -5.7342   -0.1439   -1.3942 C   0  0  0  0  0  0  0  0  0  0  0  0
   -6.8211   -0.0423   -1.9558 O   0  0  0  0  0  0  0  0  0  0  0  0
   -4.6688   -1.1149   -1.8392 C   0  0  0  0  0  0  0  0  0  0  0  0
   -4.0504   -1.7623   -0.6145 C   0  0  0  0  0  0  0  0  0  0  0  0
   -3.4680   -0.7506    0.4155 C   0  0  0  0  0  0  0  0  0  0  0  0
   -3.5949   -1.4502    1.7974 C   0  0  0  0  0  0  0  0  0  0  0  0
    1.2412    1.9867    1.2209 H   0  0  0  0  0  0  0  0  0  0  0  0
    1.7728    0.3547    1.6181 H   0  0  0  0  0  0  0  0  0  0  0  0
    0.0863    0.7920    1.7734 H   0  0  0  0  0  0  0  0  0  0  0  0
    0.9017   -1.5389    0.4867 H   0  0  0  0  0  0  0  0  0  0  0  0
    0.9444   -1.4912   -1.2582 H   0  0  0  0  0  0  0  0  0  0  0  0
   -1.1787   -2.3939   -0.0004 H   0  0  0  0  0  0  0  0  0  0  0  0
   -1.3204   -1.5052   -1.5144 H   0  0  0  0  0  0  0  0  0  0  0  0
   -1.5468   -0.2642    1.2259 H   0  0  0  0  0  0  0  0  0  0  0  0
   -2.4531    1.0439   -1.3465 H   0  0  0  0  0  0  0  0  0  0  0  0
   -0.4442    0.8061   -2.0569 H   0  0  0  0  0  0  0  0  0  0  0  0
    0.0271    3.2584   -0.3339 H   0  0  0  0  0  0  0  0  0  0  0  0
   -0.3496    3.1632   -2.0570 H   0  0  0  0  0  0  0  0  0  0  0  0
    1.8634    2.6326   -2.5703 H   0  0  0  0  0  0  0  0  0  0  0  0
    2.2337    3.1403   -0.9268 H   0  0  0  0  0  0  0  0  0  0  0  0
    1.9591    0.4014   -2.1479 H   0  0  0  0  0  0  0  0  0  0  0  0
    3.1402   -1.2500   -0.9607 H   0  0  0  0  0  0  0  0  0  0  0  0
    4.1178   -2.9755    0.7022 H   0  0  0  0  0  0  0  0  0  0  0  0
    4.8049   -2.9887   -0.9242 H   0  0  0  0  0  0  0  0  0  0  0  0
    5.8773   -3.0190    0.4865 H   0  0  0  0  0  0  0  0  0  0  0  0
    5.9947   -0.8932   -1.8318 H   0  0  0  0  0  0  0  0  0  0  0  0
    7.0934   -1.0234   -0.4475 H   0  0  0  0  0  0  0  0  0  0  0  0
    6.2587    0.4959   -0.7764 H   0  0  0  0  0  0  0  0  0  0  0  0
    5.2933    0.5016    1.6085 H   0  0  0  0  0  0  0  0  0  0  0  0
    4.3336   -0.8674    2.1730 H   0  0  0  0  0  0  0  0  0  0  0  0
    6.0881   -1.0278    1.9755 H   0  0  0  0  0  0  0  0  0  0  0  0
   -2.5312    3.0290   -0.0969 H   0  0  0  0  0  0  0  0  0  0  0  0
   -1.5908    2.3908    1.2410 H   0  0  0  0  0  0  0  0  0  0  0  0
   -3.4109    1.3803    2.2298 H   0  0  0  0  0  0  0  0  0  0  0  0
   -4.3008    2.5603    1.2960 H   0  0  0  0  0  0  0  0  0  0  0  0
   -5.9164    1.7312   -0.2950 H   0  0  0  0  0  0  0  0  0  0  0  0
   -5.1329   -1.8825   -2.4671 H   0  0  0  0  0  0  0  0  0  0  0  0
   -3.9247   -0.5854   -2.4417 H   0  0  0  0  0  0  0  0  0  0  0  0
   -4.8501   -2.3446   -0.1326 H   0  0  0  0  0  0  0  0  0  0  0  0
   -3.3105   -2.5073   -0.9208 H   0  0  0  0  0  0  0  0  0  0  0  0
   -3.1898   -0.8433    2.6143 H   0  0  0  0  0  0  0  0  0  0  0  0
   -4.6428   -1.6574    2.0454 H   0  0  0  0  0  0  0  0  0  0  0  0
   -3.0547   -2.4042    1.8013 H   0  0  0  0  0  0  0  0  0  0  0  0
  1  2  1  0
  2  3  1  0
  3  4  1  0
  4  5  1  0
  5  6  1  0
  6  7  1  0
  7  8  1  0
  8  9  1  0
  9 10  1  0
 10 11  1  0
 11 12  2  0
 11 13  1  0
 13 14  1  0
 14 15  1  0
 14 16  1  0
 14 17  1  0
  6 18  1  0
 18 19  1  0
 19 20  1  0
 20 21  2  0
 21 22  1  0
 22 23  2  0
 22 24  1  0
 24 25  1  0
 25 26  1  0
 26 27  1  0
  7  2  1  0
 10  2  1  0
 26  5  1  0
 26 20  1  0
  1 28  1  0
  1 29  1  0
  1 30  1  0
  3 31  1  0
  3 32  1  0
  4 33  1  0
  4 34  1  0
  5 35  1  0
  6 36  1  0
  7 37  1  0
  8 38  1  0
  8 39  1  0
  9 40  1  0
  9 41  1  0
 10 42  1  0
 13 43  1  0
 15 44  1  0
 15 45  1  0
 15 46  1  0
 16 47  1  0
 16 48  1  0
 16 49  1  0
 17 50  1  0
 17 51  1  0
 17 52  1  0
 18 53  1  0
 18 54  1  0
 19 55  1  0
 19 56  1  0
 21 57  1  0
 24 58  1  0
 24 59  1  0
 25 60  1  0
 25 61  1  0
 27 62  1  0
 27 63  1  0
 27 64  1  0
M  END
$$$$
