
     RDKit          3D

 43 43  0  0  0  0  0  0  0  0999 V2000
   -4.0119    3.4253   -2.6192 C   0  0  0  0  0  0  0  0  0  0  0  0
   -4.0149    2.4400   -1.4824 C   0  0  0  0  0  0  0  0  0  0  0  0
   -5.2135    2.0385   -0.8622 C   0  0  0  0  0  0  0  0  0  0  0  0
   -5.1603    1.1223    0.1979 C   0  0  0  0  0  0  0  0  0  0  0  0
   -3.9398    0.6021    0.6357 C   0  0  0  0  0  0  0  0  0  0  0  0
   -2.7452    0.9787    0.0170 C   0  0  0  0  0  0  0  0  0  0  0  0
   -2.7940    1.9076   -1.0304 C   0  0  0  0  0  0  0  0  0  0  0  0
   -1.4372    0.4797    0.4642 C   0  0  0  0  0  0  0  0  0  0  0  0
   -1.2101   -0.7831    0.8619 C   0  0  0  0  0  0  0  0  0  0  0  0
    0.0851   -1.2829    1.3140 C   0  0  0  0  0  0  0  0  0  0  0  0
    1.1925   -1.0934    0.5683 C   0  0  0  0  0  0  0  0  0  0  0  0
    2.5389   -1.5380    0.8716 C   0  0  0  0  0  0  0  0  0  0  0  0
    3.5780   -1.3045    0.0512 C   0  0  0  0  0  0  0  0  0  0  0  0
    4.9729   -1.7082    0.2676 C   0  0  0  0  0  0  0  0  0  0  0  0
    5.8862   -1.3400   -0.6548 C   0  0  0  0  0  0  0  0  0  0  0  0
    7.3351   -1.6112   -0.6328 C   0  0  0  0  0  0  0  0  0  0  0  0
    8.0098   -2.1151    0.2409 O   0  0  0  0  0  0  0  0  0  0  0  0
    7.8842   -1.1938   -1.7879 O   0  0  0  0  0  0  0  0  0  0  0  0
    5.2751   -2.5146    1.5063 C   0  0  0  0  0  0  0  0  0  0  0  0
    0.0063   -2.0325    2.6183 C   0  0  0  0  0  0  0  0  0  0  0  0
   -6.5463    2.5766   -1.3054 C   0  0  0  0  0  0  0  0  0  0  0  0
   -2.9952    3.6330   -2.9695 H   0  0  0  0  0  0  0  0  0  0  0  0
   -4.4497    4.3763   -2.2998 H   0  0  0  0  0  0  0  0  0  0  0  0
   -4.5781    3.0280   -3.4675 H   0  0  0  0  0  0  0  0  0  0  0  0
   -6.0735    0.8074    0.6985 H   0  0  0  0  0  0  0  0  0  0  0  0
   -3.9370   -0.0908    1.4731 H   0  0  0  0  0  0  0  0  0  0  0  0
   -1.8674    2.2173   -1.5108 H   0  0  0  0  0  0  0  0  0  0  0  0
   -0.6272    1.2054    0.4469 H   0  0  0  0  0  0  0  0  0  0  0  0
   -2.0210   -1.5093    0.8806 H   0  0  0  0  0  0  0  0  0  0  0  0
    1.0890   -0.5560   -0.3752 H   0  0  0  0  0  0  0  0  0  0  0  0
    2.6906   -2.0728    1.8021 H   0  0  0  0  0  0  0  0  0  0  0  0
    3.3842   -0.7572   -0.8720 H   0  0  0  0  0  0  0  0  0  0  0  0
    5.5763   -0.7700   -1.5270 H   0  0  0  0  0  0  0  0  0  0  0  0
    8.8339   -1.4103   -1.6811 H   0  0  0  0  0  0  0  0  0  0  0  0
    5.0871   -1.9175    2.4055 H   0  0  0  0  0  0  0  0  0  0  0  0
    4.6458   -3.4114    1.5428 H   0  0  0  0  0  0  0  0  0  0  0  0
    6.3033   -2.8706    1.5682 H   0  0  0  0  0  0  0  0  0  0  0  0
   -0.6538   -2.9018    2.5205 H   0  0  0  0  0  0  0  0  0  0  0  0
    0.9715   -2.4008    2.9719 H   0  0  0  0  0  0  0  0  0  0  0  0
   -0.3954   -1.3835    3.4047 H   0  0  0  0  0  0  0  0  0  0  0  0
   -7.3679    2.1444   -0.7241 H   0  0  0  0  0  0  0  0  0  0  0  0
   -6.7248    2.3323   -2.3574 H   0  0  0  0  0  0  0  0  0  0  0  0
   -6.5818    3.6622   -1.1703 H   0  0  0  0  0  0  0  0  0  0  0  0
  1  2  1  0
  2  3  2  0
  3  4  1  0
  4  5  2  0
  5  6  1  0
  6  7  2  0
  6  8  1  0
  8  9  2  0
  9 10  1  0
 10 11  2  0
 11 12  1  0
 12 13  2  0
 13 14  1  0
 14 15  2  0
 15 16  1  0
 16 17  2  0
 16 18  1  0
 14 19  1  0
 10 20  1  0
  3 21  1  0
  7  2  1  0
  1 22  1  0
  1 23  1  0
  1 24  1  0
  4 25  1  0
  5 26  1  0
  7 27  1  0
  8 28  1  0
  9 29  1  0
 11 30  1  0
 12 31  1  0
 13 32  1  0
 15 33  1  0
 18 34  1  0
 19 35  1  0
 19 36  1  0
 19 37  1  0
 20 38  1  0
 20 39  1  0
 20 40  1  0
 21 41  1  0
 21 42  1  0
 21 43  1  0
M  END
$$$$
