
     RDKit          3D

 26 25  0  0  0  0  0  0  0  0999 V2000
   -2.8655   -1.5262   -0.4093 C   0  0  0  0  0  0  0  0  0  0  0  0
   -1.7801   -0.4991   -0.6983 C   0  0  0  0  0  0  0  0  0  0  0  0
   -0.8731   -0.2935    0.5205 C   0  0  0  0  0  0  0  0  0  0  0  0
    0.2114    0.7919    0.3604 C   0  0  0  0  0  0  0  0  0  0  0  0
    1.0748    0.6629   -0.9070 C   0  0  0  0  0  0  0  0  0  0  0  0
    1.8090   -0.6720   -1.0701 C   0  0  0  0  0  0  0  0  0  0  0  0
    2.8048   -0.9552    0.0440 C   0  0  0  0  0  0  0  0  0  0  0  0
   -0.3915    2.1842    0.4404 C   0  0  0  0  0  0  0  0  0  0  0  0
    0.5467    3.1445    0.5711 O   0  0  0  0  0  0  0  0  0  0  0  0
   -1.5722    2.4870    0.4272 O   0  0  0  0  0  0  0  0  0  0  0  0
   -3.5035   -1.2006    0.4184 H   0  0  0  0  0  0  0  0  0  0  0  0
   -3.4988   -1.6661   -1.2910 H   0  0  0  0  0  0  0  0  0  0  0  0
   -2.4288   -2.4952   -0.1475 H   0  0  0  0  0  0  0  0  0  0  0  0
   -1.1960   -0.8458   -1.5569 H   0  0  0  0  0  0  0  0  0  0  0  0
   -2.2547    0.4430   -0.9906 H   0  0  0  0  0  0  0  0  0  0  0  0
   -0.3864   -1.2473    0.7605 H   0  0  0  0  0  0  0  0  0  0  0  0
   -1.4964   -0.0472    1.3904 H   0  0  0  0  0  0  0  0  0  0  0  0
    0.8571    0.7133    1.2456 H   0  0  0  0  0  0  0  0  0  0  0  0
    0.4541    0.8361   -1.7952 H   0  0  0  0  0  0  0  0  0  0  0  0
    1.8233    1.4663   -0.9196 H   0  0  0  0  0  0  0  0  0  0  0  0
    2.3522   -0.6499   -2.0227 H   0  0  0  0  0  0  0  0  0  0  0  0
    1.0968   -1.5005   -1.1409 H   0  0  0  0  0  0  0  0  0  0  0  0
    2.3015   -1.1070    1.0032 H   0  0  0  0  0  0  0  0  0  0  0  0
    3.5180   -0.1321    0.1528 H   0  0  0  0  0  0  0  0  0  0  0  0
    3.3702   -1.8654   -0.1805 H   0  0  0  0  0  0  0  0  0  0  0  0
    0.0270    3.9738    0.6271 H   0  0  0  0  0  0  0  0  0  0  0  0
  1  2  1  0
  2  3  1  0
  3  4  1  0
  4  5  1  0
  5  6  1  0
  6  7  1  0
  4  8  1  0
  8  9  1  0
  8 10  2  0
  1 11  1  0
  1 12  1  0
  1 13  1  0
  2 14  1  0
  2 15  1  0
  3 16  1  0
  3 17  1  0
  4 18  1  0
  5 19  1  0
  5 20  1  0
  6 21  1  0
  6 22  1  0
  7 23  1  0
  7 24  1  0
  7 25  1  0
  9 26  1  0
M  END
$$$$
