
     RDKit          3D

 29 30  0  0  0  0  0  0  0  0999 V2000
    2.8960    2.6560   -1.0453 N   0  0  0  0  0  0  0  0  0  0  0  0
    2.4595    1.4100   -0.5890 C   0  0  0  0  0  0  0  0  0  0  0  0
    3.3529    0.3873   -0.3971 C   0  0  0  0  0  0  0  0  0  0  0  0
    2.8228   -0.8027    0.0366 C   0  0  0  0  0  0  0  0  0  0  0  0
    3.6575   -1.9088    0.2550 N   0  0  0  0  0  0  0  0  0  0  0  0
    1.5161   -0.9597    0.2588 N   0  0  0  0  0  0  0  0  0  0  0  0
    0.6975    0.0798    0.0344 C   0  0  0  0  0  0  0  0  0  0  0  0
    1.1477    1.2727   -0.3890 N   0  0  0  0  0  0  0  0  0  0  0  0
   -0.6551   -0.0750    0.2668 N   0  0  0  0  0  0  0  0  0  0  0  0
   -1.1903   -1.4203    0.4348 C   0  0  0  0  0  0  0  0  0  0  0  0
   -2.5587   -1.5396   -0.2350 C   0  0  0  0  0  0  0  0  0  0  0  0
   -3.5529   -0.4991    0.2763 C   0  0  0  0  0  0  0  0  0  0  0  0
   -2.8867    0.8146    0.6827 C   0  0  0  0  0  0  0  0  0  0  0  0
   -1.5503    1.0336   -0.0235 C   0  0  0  0  0  0  0  0  0  0  0  0
    3.6173    3.0422   -0.4472 H   0  0  0  0  0  0  0  0  0  0  0  0
    2.0773    3.2598   -1.0794 H   0  0  0  0  0  0  0  0  0  0  0  0
    4.4077    0.5145   -0.5899 H   0  0  0  0  0  0  0  0  0  0  0  0
    4.3601   -1.6786    0.9506 H   0  0  0  0  0  0  0  0  0  0  0  0
    4.1325   -2.1531   -0.6088 H   0  0  0  0  0  0  0  0  0  0  0  0
   -1.2768   -1.6411    1.5054 H   0  0  0  0  0  0  0  0  0  0  0  0
   -0.5449   -2.1890   -0.0070 H   0  0  0  0  0  0  0  0  0  0  0  0
   -2.4359   -1.4082   -1.3183 H   0  0  0  0  0  0  0  0  0  0  0  0
   -2.9670   -2.5459   -0.0884 H   0  0  0  0  0  0  0  0  0  0  0  0
   -4.3013   -0.3124   -0.5032 H   0  0  0  0  0  0  0  0  0  0  0  0
   -4.1019   -0.8989    1.1374 H   0  0  0  0  0  0  0  0  0  0  0  0
   -3.5646    1.6523    0.4837 H   0  0  0  0  0  0  0  0  0  0  0  0
   -2.7170    0.8022    1.7676 H   0  0  0  0  0  0  0  0  0  0  0  0
   -1.7040    1.1236   -1.1060 H   0  0  0  0  0  0  0  0  0  0  0  0
   -1.1375    1.9839    0.3370 H   0  0  0  0  0  0  0  0  0  0  0  0
  1  2  1  0
  2  3  2  0
  3  4  1  0
  4  5  1  0
  4  6  2  0
  6  7  1  0
  7  8  2  0
  7  9  1  0
  9 10  1  0
 10 11  1  0
 11 12  1  0
 12 13  1  0
 13 14  1  0
  8  2  1  0
 14  9  1  0
  1 15  1  0
  1 16  1  0
  3 17  1  0
  5 18  1  0
  5 19  1  0
 10 20  1  0
 10 21  1  0
 11 22  1  0
 11 23  1  0
 12 24  1  0
 12 25  1  0
 13 26  1  0
 13 27  1  0
 14 28  1  0
 14 29  1  0
M  END
$$$$
