
     RDKit          3D

 29 30  0  0  0  0  0  0  0  0999 V2000
    3.2032    2.5514   -0.2243 N   0  0  0  0  0  0  0  0  0  0  0  0
    2.6309    1.2826   -0.1118 C   0  0  0  0  0  0  0  0  0  0  0  0
    3.4223    0.1703    0.0031 C   0  0  0  0  0  0  0  0  0  0  0  0
    2.7601   -1.0263    0.0814 C   0  0  0  0  0  0  0  0  0  0  0  0
    3.4688   -2.2219    0.2211 N   0  0  0  0  0  0  0  0  0  0  0  0
    1.4281   -1.1187    0.0664 N   0  0  0  0  0  0  0  0  0  0  0  0
    0.7145    0.0131   -0.0608 C   0  0  0  0  0  0  0  0  0  0  0  0
    1.2976    1.2204   -0.1580 N   0  0  0  0  0  0  0  0  0  0  0  0
   -0.6865   -0.0729   -0.1218 N   0  0  0  0  0  0  0  0  0  0  0  0
   -1.2212   -1.2819    0.5102 C   0  0  0  0  0  0  0  0  0  0  0  0
   -2.7216   -1.4052    0.2437 C   0  0  0  0  0  0  0  0  0  0  0  0
   -3.4663   -0.1380    0.6457 C   0  0  0  0  0  0  0  0  0  0  0  0
   -2.8636    1.0698   -0.0611 C   0  0  0  0  0  0  0  0  0  0  0  0
   -1.3628    1.1842    0.2073 C   0  0  0  0  0  0  0  0  0  0  0  0
    3.8409    2.7444    0.5395 H   0  0  0  0  0  0  0  0  0  0  0  0
    2.4400    3.2228   -0.2597 H   0  0  0  0  0  0  0  0  0  0  0  0
    4.4999    0.2326    0.0272 H   0  0  0  0  0  0  0  0  0  0  0  0
    2.7847   -2.9750    0.2079 H   0  0  0  0  0  0  0  0  0  0  0  0
    4.1574   -2.3321   -0.5150 H   0  0  0  0  0  0  0  0  0  0  0  0
   -0.7496   -2.1880    0.1099 H   0  0  0  0  0  0  0  0  0  0  0  0
   -1.0403   -1.2556    1.5930 H   0  0  0  0  0  0  0  0  0  0  0  0
   -2.8874   -1.5978   -0.8239 H   0  0  0  0  0  0  0  0  0  0  0  0
   -3.1254   -2.2640    0.7915 H   0  0  0  0  0  0  0  0  0  0  0  0
   -4.5269   -0.2307    0.3873 H   0  0  0  0  0  0  0  0  0  0  0  0
   -3.4072   -0.0008    1.7322 H   0  0  0  0  0  0  0  0  0  0  0  0
   -3.3692    1.9845    0.2680 H   0  0  0  0  0  0  0  0  0  0  0  0
   -3.0347    0.9784   -1.1413 H   0  0  0  0  0  0  0  0  0  0  0  0
   -1.1961    1.4406    1.2620 H   0  0  0  0  0  0  0  0  0  0  0  0
   -0.9897    2.0137   -0.4064 H   0  0  0  0  0  0  0  0  0  0  0  0
  1  2  1  0
  2  3  2  0
  3  4  1  0
  4  5  1  0
  4  6  2  0
  6  7  1  0
  7  8  2  0
  7  9  1  0
  9 10  1  0
 10 11  1  0
 11 12  1  0
 12 13  1  0
 13 14  1  0
  8  2  1  0
 14  9  1  0
  1 15  1  0
  1 16  1  0
  3 17  1  0
  5 18  1  0
  5 19  1  0
 10 20  1  0
 10 21  1  0
 11 22  1  0
 11 23  1  0
 12 24  1  0
 12 25  1  0
 13 26  1  0
 13 27  1  0
 14 28  1  0
 14 29  1  0
M  END
$$$$
