
     RDKit          3D

 23 24  0  0  0  0  0  0  0  0999 V2000
    1.9019   -1.8703   -0.9366 O   0  0  0  0  0  0  0  0  0  0  0  0
    2.5614   -0.8598   -0.5409 C   0  0  0  0  0  0  0  0  0  0  0  0
    3.9168   -0.7419   -0.7635 C   0  0  0  0  0  0  0  0  0  0  0  0
    4.5953    0.3705   -0.3179 C   0  0  0  0  0  0  0  0  0  0  0  0
    3.8686    1.3337    0.3441 C   0  0  0  0  0  0  0  0  0  0  0  0
    2.5119    1.1797    0.5479 C   0  0  0  0  0  0  0  0  0  0  0  0
    1.8558    0.0831    0.1060 N   0  0  0  0  0  0  0  0  0  0  0  0
   -0.0054   -0.1101    0.3951 Zn  0  0  0  0  0  2  0  0  0  0  0  0
   -1.8672   -0.1636    0.3544 N   0  0  0  0  0  0  0  0  0  0  0  0
   -2.5779    0.9311    0.0275 C   0  0  0  0  0  0  0  0  0  0  0  0
   -3.9563    0.9395   -0.0160 C   0  0  0  0  0  0  0  0  0  0  0  0
   -4.5864   -0.2618    0.3007 C   0  0  0  0  0  0  0  0  0  0  0  0
   -3.8267   -1.3766    0.6347 C   0  0  0  0  0  0  0  0  0  0  0  0
   -2.4483   -1.3226    0.6608 C   0  0  0  0  0  0  0  0  0  0  0  0
   -1.7484   -2.3391    0.9656 O   0  0  0  0  0  0  0  0  0  0  0  0
    4.4444   -1.5207   -1.2862 H   0  0  0  0  0  0  0  0  0  0  0  0
    5.6790    0.4847   -0.4854 H   0  0  0  0  0  0  0  0  0  0  0  0
    4.3690    2.2130    0.7039 H   0  0  0  0  0  0  0  0  0  0  0  0
    1.9194    1.9299    1.0691 H   0  0  0  0  0  0  0  0  0  0  0  0
   -2.0874    1.8799   -0.2229 H   0  0  0  0  0  0  0  0  0  0  0  0
   -4.5446    1.8083   -0.2762 H   0  0  0  0  0  0  0  0  0  0  0  0
   -5.6717   -0.2926    0.2769 H   0  0  0  0  0  0  0  0  0  0  0  0
   -4.3030   -2.2944    0.8768 H   0  0  0  0  0  0  0  0  0  0  0  0
  1  2  2  0
  2  3  1  0
  3  4  2  0
  4  5  1  0
  5  6  2  0
  6  7  1  0
  7  8  1  0
  8  9  1  0
  9 10  1  0
 10 11  2  0
 11 12  1  0
 12 13  2  0
 13 14  1  0
 14 15  2  0
  7  2  1  0
 14  9  1  0
  3 16  1  0
  4 17  1  0
  5 18  1  0
  6 19  1  0
 10 20  1  0
 11 21  1  0
 12 22  1  0
 13 23  1  0
M  END
$$$$
