
     RDKit          3D

 23 24  0  0  0  0  0  0  0  0999 V2000
   -1.8761    0.3897   -2.2740 O   0  0  0  0  0  0  0  0  0  0  0  0
   -2.5057    0.2349   -1.1738 C   0  0  0  0  0  0  0  0  0  0  0  0
   -3.8831    0.2832   -1.2327 C   0  0  0  0  0  0  0  0  0  0  0  0
   -4.6051    0.1212   -0.0699 C   0  0  0  0  0  0  0  0  0  0  0  0
   -3.9120   -0.0815    1.0973 C   0  0  0  0  0  0  0  0  0  0  0  0
   -2.5423   -0.1221    1.1084 C   0  0  0  0  0  0  0  0  0  0  0  0
   -1.8249    0.0353   -0.0246 N   0  0  0  0  0  0  0  0  0  0  0  0
   -0.0159   -0.0168   -0.0199 Zn  0  0  0  0  0  2  0  0  0  0  0  0
    1.8475   -0.0509    0.1079 N   0  0  0  0  0  0  0  0  0  0  0  0
    2.5211   -1.1819   -0.1497 C   0  0  0  0  0  0  0  0  0  0  0  0
    3.8993   -1.2459   -0.0656 C   0  0  0  0  0  0  0  0  0  0  0  0
    4.6186   -0.1211    0.2927 C   0  0  0  0  0  0  0  0  0  0  0  0
    3.8996    1.0274    0.5517 C   0  0  0  0  0  0  0  0  0  0  0  0
    2.5272    1.0479    0.4563 C   0  0  0  0  0  0  0  0  0  0  0  0
    1.8852    2.1109    0.6977 O   0  0  0  0  0  0  0  0  0  0  0  0
   -4.4000    0.4479   -2.1887 H   0  0  0  0  0  0  0  0  0  0  0  0
   -5.6974    0.1572   -0.1016 H   0  0  0  0  0  0  0  0  0  0  0  0
   -4.4464   -0.2111    2.0198 H   0  0  0  0  0  0  0  0  0  0  0  0
   -2.0431   -0.2872    2.0700 H   0  0  0  0  0  0  0  0  0  0  0  0
    1.9782   -2.0993   -0.4387 H   0  0  0  0  0  0  0  0  0  0  0  0
    4.4339   -2.1624   -0.2752 H   0  0  0  0  0  0  0  0  0  0  0  0
    5.6953   -0.1908    0.3530 H   0  0  0  0  0  0  0  0  0  0  0  0
    4.4462    1.9153    0.8330 H   0  0  0  0  0  0  0  0  0  0  0  0
  1  2  2  0
  2  3  1  0
  3  4  2  0
  4  5  1  0
  5  6  2  0
  6  7  1  0
  7  8  1  0
  8  9  1  0
  9 10  1  0
 10 11  2  0
 11 12  1  0
 12 13  2  0
 13 14  1  0
 14 15  2  0
  7  2  1  0
 14  9  1  0
  3 16  1  0
  4 17  1  0
  5 18  1  0
  6 19  1  0
 10 20  1  0
 11 21  1  0
 12 22  1  0
 13 23  1  0
M  END
$$$$
