
     RDKit          3D

 29 30  0  0  0  0  0  0  0  0999 V2000
    3.3760    2.2480   -0.0851 N   0  0  0  0  0  0  0  0  0  0  0  0
    2.6651    1.0396   -0.0671 C   0  0  0  0  0  0  0  0  0  0  0  0
    3.3349   -0.1578   -0.1470 C   0  0  0  0  0  0  0  0  0  0  0  0
    2.5596   -1.2922   -0.1209 C   0  0  0  0  0  0  0  0  0  0  0  0
    3.1582   -2.5579   -0.1953 N   0  0  0  0  0  0  0  0  0  0  0  0
    1.2314   -1.2426   -0.0139 N   0  0  0  0  0  0  0  0  0  0  0  0
    0.6392   -0.0396    0.0650 C   0  0  0  0  0  0  0  0  0  0  0  0
    1.3375    1.1058    0.0394 N   0  0  0  0  0  0  0  0  0  0  0  0
   -0.7439    0.0122    0.2024 N   0  0  0  0  0  0  0  0  0  0  0  0
   -1.4589   -1.1747   -0.2616 C   0  0  0  0  0  0  0  0  0  0  0  0
   -2.9317   -0.8711   -0.5468 C   0  0  0  0  0  0  0  0  0  0  0  0
   -3.5399    0.0039    0.5394 C   0  0  0  0  0  0  0  0  0  0  0  0
   -2.7465    1.2946    0.7541 C   0  0  0  0  0  0  0  0  0  0  0  0
   -1.3824    1.3105    0.0570 C   0  0  0  0  0  0  0  0  0  0  0  0
    4.0090    2.2888    0.7076 H   0  0  0  0  0  0  0  0  0  0  0  0
    3.9209    2.3209   -0.9382 H   0  0  0  0  0  0  0  0  0  0  0  0
    4.4107   -0.2047   -0.2279 H   0  0  0  0  0  0  0  0  0  0  0  0
    3.7793   -2.6934    0.5962 H   0  0  0  0  0  0  0  0  0  0  0  0
    3.7000   -2.6397   -1.0495 H   0  0  0  0  0  0  0  0  0  0  0  0
   -1.0212   -1.5802   -1.1833 H   0  0  0  0  0  0  0  0  0  0  0  0
   -1.3957   -1.9524    0.5097 H   0  0  0  0  0  0  0  0  0  0  0  0
   -3.4918   -1.8086   -0.6373 H   0  0  0  0  0  0  0  0  0  0  0  0
   -3.0204   -0.3589   -1.5135 H   0  0  0  0  0  0  0  0  0  0  0  0
   -3.5676   -0.5603    1.4802 H   0  0  0  0  0  0  0  0  0  0  0  0
   -4.5806    0.2430    0.2928 H   0  0  0  0  0  0  0  0  0  0  0  0
   -2.6063    1.4392    1.8331 H   0  0  0  0  0  0  0  0  0  0  0  0
   -3.3323    2.1544    0.4075 H   0  0  0  0  0  0  0  0  0  0  0  0
   -0.7997    2.1221    0.5096 H   0  0  0  0  0  0  0  0  0  0  0  0
   -1.5030    1.5513   -1.0069 H   0  0  0  0  0  0  0  0  0  0  0  0
  1  2  1  0
  2  3  2  0
  3  4  1  0
  4  5  1  0
  4  6  2  0
  6  7  1  0
  7  8  2  0
  7  9  1  0
  9 10  1  0
 10 11  1  0
 11 12  1  0
 12 13  1  0
 13 14  1  0
  8  2  1  0
 14  9  1  0
  1 15  1  0
  1 16  1  0
  3 17  1  0
  5 18  1  0
  5 19  1  0
 10 20  1  0
 10 21  1  0
 11 22  1  0
 11 23  1  0
 12 24  1  0
 12 25  1  0
 13 26  1  0
 13 27  1  0
 14 28  1  0
 14 29  1  0
M  END
$$$$
